
  EPA STORM WATER MANAGEMENT MODEL - VERSION 5.2 (Build 5.2.4)
  PYSWMM TOOLKIT API - VERSION v1.0 (2023-11-27)
  ------------------------------------------------------------

  WARNING 04: minimum elevation drop used for Conduit C23
  WARNING 04: minimum elevation drop used for Conduit C24
  WARNING 04: minimum elevation drop used for Conduit C25
  WARNING 04: minimum elevation drop used for Conduit C26
  WARNING 04: minimum elevation drop used for Conduit C27
  WARNING 04: minimum elevation drop used for Conduit C28
  WARNING 04: minimum elevation drop used for Conduit C29
  WARNING 04: minimum elevation drop used for Conduit C30
  WARNING 04: minimum elevation drop used for Conduit C31
  WARNING 04: minimum elevation drop used for Conduit C32
  WARNING 04: minimum elevation drop used for Conduit C33
  WARNING 04: minimum elevation drop used for Conduit C34
  WARNING 04: minimum elevation drop used for Conduit C35
  WARNING 04: minimum elevation drop used for Conduit C36
  WARNING 04: minimum elevation drop used for Conduit C37
  WARNING 04: minimum elevation drop used for Conduit C38
  WARNING 04: minimum elevation drop used for Conduit C39
  WARNING 04: minimum elevation drop used for Conduit C40
  WARNING 04: minimum elevation drop used for Conduit C41
  WARNING 04: minimum elevation drop used for Conduit C43
  WARNING 04: minimum elevation drop used for Conduit C44
  WARNING 04: minimum elevation drop used for Conduit C45
  WARNING 04: minimum elevation drop used for Conduit C46
  WARNING 04: minimum elevation drop used for Conduit C48
  WARNING 04: minimum elevation drop used for Conduit C42
  WARNING 04: minimum elevation drop used for Conduit C50
  WARNING 04: minimum elevation drop used for Conduit C49
  WARNING 04: minimum elevation drop used for Conduit C01
  WARNING 04: minimum elevation drop used for Conduit C02
  WARNING 04: minimum elevation drop used for Conduit C03
  WARNING 04: minimum elevation drop used for Conduit C04
  WARNING 04: minimum elevation drop used for Conduit C05
  WARNING 04: minimum elevation drop used for Conduit C06
  WARNING 04: minimum elevation drop used for Conduit C07
  WARNING 04: minimum elevation drop used for Conduit C08
  WARNING 04: minimum elevation drop used for Conduit C09
  WARNING 04: minimum elevation drop used for Conduit C10
  WARNING 04: minimum elevation drop used for Conduit C11
  WARNING 04: minimum elevation drop used for Conduit C12
  WARNING 04: minimum elevation drop used for Conduit C13
  WARNING 04: minimum elevation drop used for Conduit C14
  WARNING 04: minimum elevation drop used for Conduit C15
  WARNING 04: minimum elevation drop used for Conduit C16
  WARNING 04: minimum elevation drop used for Conduit C17
  WARNING 04: minimum elevation drop used for Conduit C18
  WARNING 04: minimum elevation drop used for Conduit C19
  WARNING 04: minimum elevation drop used for Conduit C20
  WARNING 04: minimum elevation drop used for Conduit C21
  WARNING 04: minimum elevation drop used for Conduit C22
  WARNING 04: minimum elevation drop used for Conduit C47
  WARNING 04: minimum elevation drop used for Conduit Cout
  
  ****************
  Analysis Options
  ****************
  Flow Units ............... CMS
  Process Models:
    Rainfall/Runoff ........ YES
    RDII ................... NO
    Snowmelt ............... NO
    Groundwater ............ NO
    Flow Routing ........... YES
    Ponding Allowed ........ NO
    Water Quality .......... NO
  Infiltration Method ...... HORTON
  Flow Routing Method ...... DYNWAVE
  Surcharge Method ......... EXTRAN
  Starting Date ............ 08/05/2023 12:00:00
  Ending Date .............. 08/05/2023 12:40:00
  Antecedent Dry Days ...... 0.0
  Report Time Step ......... 00:10:00
  Wet Time Step ............ 00:05:00
  Dry Time Step ............ 01:00:00
  Routing Time Step ........ 300.00 sec
  Variable Time Step ....... YES
  Maximum Trials ........... 8
  Number of Threads ........ 1
  Head Tolerance ........... 0.001524 m
  
  
  *********************
  Rainfall File Summary
  *********************
  Station    First        Last         Recording   Periods    Periods    Periods
  ID         Date         Date         Frequency  w/Precip    Missing    Malfunc.
  -------------------------------------------------------------------------------
  462        08/05/2023   08/05/2023      10 min         5          0          0

  
  
  **************************        Volume         Depth
  Runoff Quantity Continuity     hectare-m            mm
  **************************     ---------       -------
  Total Precipitation ......       111.756      1117.600
  Evaporation Loss .........         0.000         0.000
  Infiltration Loss ........         0.000         0.000
  Surface Runoff ...........       104.586      1045.904
  Final Storage ............        10.155       101.554
  Continuity Error (%) .....        -2.672
  
  
  **************************        Volume        Volume
  Flow Routing Continuity        hectare-m      10^6 ltr
  **************************     ---------     ---------
  Dry Weather Inflow .......         0.000         0.000
  Wet Weather Inflow .......        92.499       925.005
  Groundwater Inflow .......         0.000         0.000
  RDII Inflow ..............         0.000         0.000
  External Inflow ..........         0.000         0.000
  External Outflow .........         1.664        16.642
  Flooding Loss ............        86.313       863.135
  Evaporation Loss .........         0.000         0.000
  Exfiltration Loss ........         0.000         0.000
  Initial Stored Volume ....         0.046         0.463
  Final Stored Volume ......         1.883        18.831
  Continuity Error (%) .....         2.902
  
  
  *************************
  Highest Continuity Errors
  *************************
  Node J30 (19.66%)
  Node J3 (18.42%)
  Node J17 (12.22%)
  Node J18 (9.30%)
  Node J24 (8.46%)
  
  
  ***************************
  Time-Step Critical Elements
  ***************************
  Link Cout (98.69%)
  
  
  ********************************
  Highest Flow Instability Indexes
  ********************************
  Link C24 (2)
  Link C31 (2)
  Link C33 (2)
  Link C34 (2)
  Link C36 (2)
  
  
  *********************************
  Most Frequent Nonconverging Nodes
  *********************************
  Convergence obtained at all time steps.
  
  
  *************************
  Routing Time Step Summary
  *************************
  Minimum Time Step           :     4.91 sec
  Average Time Step           :    15.69 sec
  Maximum Time Step           :   300.00 sec
  % of Time in Steady State   :     0.00
  Average Iterations per Step :     2.03
  % of Steps Not Converging   :     0.00
  Time Step Frequencies       :
     300.000 - 83.462 sec      :     0.66 %
     83.462 - 23.220 sec      :     0.00 %
     23.220 -  6.460 sec      :    98.68 %
      6.460 -  1.797 sec      :     0.66 %
      1.797 -  0.500 sec      :     0.00 %
  
  
  ***************************
  Subcatchment Runoff Summary
  ***************************
  
  ------------------------------------------------------------------------------------------------------------------------------
                            Total      Total      Total      Total     Imperv       Perv      Total       Total     Peak  Runoff
                           Precip      Runon       Evap      Infil     Runoff     Runoff     Runoff      Runoff   Runoff   Coeff
  Subcatchment                 mm         mm         mm         mm         mm         mm         mm    10^6 ltr      CMS
  ------------------------------------------------------------------------------------------------------------------------------
  S1                      1117.60       0.00       0.00       0.00      11.06    1106.54    1117.60      281.93   208.26   1.000
  S2                      1117.60       0.00       0.00       0.00      10.17    1107.95    1118.12        8.69     6.41   1.000
  S3                      1117.60       0.00       0.00       0.00      10.17    1107.43    1117.60        2.31     1.71   1.000
  S4                      1117.60       0.00       0.00       0.00      10.17    1107.43    1117.60        2.29     1.69   1.000
  S5                      1117.60       0.00       0.00       0.00      10.17    1107.43    1117.60        3.34     2.47   1.000
  S6                      1117.60       0.00       0.00       0.00      10.17    1107.43    1117.60        9.21     6.80   1.000
  S7                      1117.60       0.00       0.00       0.00      10.17    1107.43    1117.60        1.73     1.28   1.000
  S8                      1117.60       0.00       0.00       0.00      10.17    1107.43    1117.60        5.44     4.02   1.000
  S9                      1117.60       0.00       0.00       0.00      10.17    1107.43    1117.60        6.73     4.97   1.000
  S10                     1117.60       0.00       0.00       0.00       0.00    1107.43    1107.43        1.56     1.15   0.991
  S11                     1117.60       0.00       0.00       0.00      10.17    1060.66    1070.83       15.67    11.99   0.958
  S12                     1117.60       0.00       0.00       0.00      10.17    1107.43    1117.60        9.70     7.17   1.000
  S13                     1117.60       0.00       0.00       0.00       0.00    1107.43    1107.43        9.35     6.90   0.991
  S14                     1117.60       0.00       0.00       0.00       9.39    1108.21    1117.60        8.97     6.63   1.000
  S15                     1117.60       0.00       0.00       0.00       9.39    1108.21    1117.60        8.38     6.19   1.000
  S16                     1117.60       0.00       0.00       0.00       8.61    1104.90    1113.50       19.66    14.58   0.996
  S17                     1117.60       0.00       0.00       0.00       8.61     967.55     976.15       33.24    26.55   0.873
  S18                     1117.60       0.00       0.00       0.00       8.61    1108.98    1117.58        1.44     1.06   1.000
  S19                     1117.60       0.00       0.00       0.00       8.61       0.00       8.61        0.02     0.02   0.008
  S20                     1117.60       0.00       0.00       0.00       8.61    1108.98    1117.59        1.14     0.84   1.000
  S21                     1117.60       0.00       0.00       0.00       8.61    1088.46    1097.07       18.19    13.66   0.982
  S22                     1117.60       0.00       0.00       0.00       8.61    1108.89    1117.49        0.37     0.27   1.000
  S23                     1117.60       0.00       0.00       0.00       8.61    1108.99    1117.60        0.44     0.32   1.000
  S24                     1117.60       0.00       0.00       0.00       8.61    1108.99    1117.60        0.55     0.40   1.000
  S25                     1117.60       0.00       0.00       0.00       8.61    1108.99    1117.60        0.66     0.49   1.000
  S26                     1117.60       0.00       0.00       0.00       8.61    1108.99    1117.60        0.77     0.57   1.000
  S27                     1117.60       0.00       0.00       0.00       8.61    1109.19    1117.79        9.29     6.86   1.000
  S28                     1117.60       0.00       0.00       0.00       8.61    1091.79    1100.40        9.77     7.32   0.985
  S29                     1117.60       0.00       0.00       0.00       8.61    1108.94    1117.55        1.03     0.76   1.000
  S30                     1117.60       0.00       0.00       0.00       8.61     923.95     932.55       59.40    48.03   0.834
  S31                     1117.60       0.00       0.00       0.00       8.94    1108.66    1117.60       15.14    11.19   1.000
  S32                     1117.60       0.00       0.00       0.00       8.94    1108.66    1117.60        4.66     3.44   1.000
  S33                     1117.60       0.00       0.00       0.00      10.51    1107.09    1117.60        3.48     2.57   1.000
  S34                     1117.60       0.00       0.00       0.00      10.51    1107.09    1117.60        3.68     2.72   1.000
  S35                     1117.60       0.00       0.00       0.00      10.17    1107.43    1117.60        4.49     3.32   1.000
  S36                     1117.60       0.00       0.00       0.00      10.17    1107.43    1117.60        1.84     1.36   1.000
  S37                     1117.60       0.00       0.00       0.00      10.17    1107.43    1117.60        4.02     2.97   1.000
  S38                     1117.60       0.00       0.00       0.00      10.17    1107.43    1117.60        0.18     0.13   1.000
  S39                     1117.60       0.00       0.00       0.00      10.17    1107.43    1117.60        4.58     3.38   1.000
  S40                     1117.60       0.00       0.00       0.00      10.17    1107.43    1117.60        1.58     1.16   1.000
  S41                     1117.60       0.00       0.00       0.00      10.17    1107.43    1117.60        2.54     1.87   1.000
  S42                     1117.60       0.00       0.00       0.00      10.17    1107.43    1117.60        3.53     2.61   1.000
  S43                     1117.60       0.00       0.00       0.00      10.17    1107.43    1117.60        8.05     5.94   1.000
  S44                     1117.60       0.00       0.00       0.00      10.17    1107.43    1117.60        5.83     4.31   1.000
  S45                     1117.60       0.00       0.00       0.00      10.17    1107.43    1117.60        0.59     0.44   1.000
  S46                     1117.60       0.00       0.00       0.00      10.17    1107.43    1117.60        5.41     4.00   1.000
  S47                     1117.60       0.00       0.00       0.00      10.17    1107.43    1117.60       10.93     8.07   1.000
  S48                     1117.60       0.00       0.00       0.00      10.17    1107.43    1117.60       12.63     9.33   1.000
  S49                     1117.60       0.00       0.00       0.00      10.17    1107.43    1117.60        7.68     5.67   1.000
  S50                     1117.60       0.00       0.00       0.00      10.17    1107.43    1117.60        6.33     4.67   1.000
  S51                     1117.60       0.00       0.00       0.00      10.17    1107.43    1117.60        3.73     2.76   1.000
  S52                     1117.60       0.00       0.00       0.00      10.17    1107.43    1117.60        9.89     7.31   1.000
  S53                     1117.60       0.00       0.00       0.00      10.17    1091.55    1101.72       13.42    10.04   0.986
  S54                     1117.60       0.00       0.00       0.00      10.17    1107.74    1117.91        5.11     3.77   1.000
  S55                     1117.60       0.00       0.00       0.00      10.17    1107.43    1117.60        0.42     0.31   1.000
  S56                     1117.60       0.00       0.00       0.00      10.17    1107.34    1117.51        0.42     0.31   1.000
  S57                     1117.60       0.00       0.00       0.00      10.17    1107.43    1117.60        5.78     4.27   1.000
  S58                     1117.60       0.00       0.00       0.00      10.17    1107.43    1117.60        7.42     5.48   1.000
  S59                     1117.60       0.00       0.00       0.00      10.17    1107.43    1117.60        7.21     5.33   1.000
  S60                     1117.60       0.00       0.00       0.00       8.61    1109.48    1118.09        4.39     3.24   1.000
  S61                     1117.60       0.00       0.00       0.00       8.61       0.00       8.61        0.03     0.02   0.008
  S62                     1117.60       0.00       0.00       0.00       8.61     893.95     902.55       48.37    39.38   0.808
  S63                     1117.60       0.00       0.00       0.00       8.61    1108.99    1117.60       10.51     7.76   1.000
  S64                     1117.60       0.00       0.00       0.00       8.61    1108.99    1117.60       28.44    21.01   1.000
  S65                     1117.60       0.00       0.00       0.00       8.61    1108.99    1117.60        4.54     3.35   1.000
  S66                     1117.60       0.00       0.00       0.00       8.61    1108.99    1117.60        7.32     5.41   1.000
  S67                     1117.60       0.00       0.00       0.00       8.61    1108.99    1117.60       13.68    10.11   1.000
  S68                     1117.60       0.00       0.00       0.00       8.61    1108.99    1117.60       16.04    11.85   1.000
  S69                     1117.60       0.00       0.00       0.00       8.61       0.00       8.61        0.21     0.16   0.008
  S70                     1117.60       0.00       0.00       0.00       8.61    1086.89    1095.49       28.67    21.56   0.980
  S71                     1117.60       0.00       0.00       0.00      10.17    1107.43    1117.60       16.44    12.14   1.000
  S72                     1117.60       0.00       0.00       0.00       8.61    1106.59    1115.20        5.53     4.09   0.998
  S73                     1117.60       0.00       0.00       0.00       8.61    1108.99    1117.60       23.43    17.30   1.000
  S74                     1117.60       0.00       0.00       0.00       8.61       0.00       8.61        0.06     0.04   0.008
  S75                     1117.60       0.00       0.00       0.00       8.61    1108.99    1117.60        0.75     0.55   1.000
  S76                     1117.60       0.00       0.00       0.00       8.61    1108.99    1117.60       14.76    10.91   1.000
  S77                     1117.60       0.00       0.00       0.00       8.61    1108.99    1117.60       11.95     8.83   1.000
  S78                     1117.60       0.00       0.00       0.00       8.61    1108.99    1117.60        8.66     6.40   1.000
  S79                     1117.60       0.00       0.00       0.00      10.17    1107.43    1117.60        7.59     5.61   1.000
  S80                     1117.60       0.00       0.00       0.00       8.61    1109.16    1117.76        3.09     2.28   1.000
  S81                     1117.60       0.00       0.00       0.00       8.61    1108.99    1117.60       12.64     9.34   1.000
  S82                     1117.60       0.00       0.00       0.00       8.61    1108.99    1117.60       12.34     9.11   1.000
  S83                     1117.60       0.00       0.00       0.00       8.61    1108.99    1117.60        7.94     5.86   1.000
  S84                     1117.60       0.00       0.00       0.00      10.17    1107.43    1117.60        5.19     3.83   1.000
  S85                     1117.60       0.00       0.00       0.00      10.17    1097.93    1108.10       13.70    10.20   0.991
  S86                     1117.60       0.00       0.00       0.00       0.00    1107.43    1107.43       12.81     9.47   0.991
  S87                     1117.60       0.00       0.00       0.00      10.17    1107.43    1117.60       13.88    10.25   1.000
  S88                     1117.60       0.00       0.00       0.00      10.17    1107.43    1117.60        2.50     1.85   1.000
  S89                     1117.60       0.00       0.00       0.00      10.17    1107.43    1117.60       11.30     8.35   1.000
  S90                     1117.60       0.00       0.00       0.00       0.00    1107.43    1107.43        5.44     4.02   0.991
  S91                     1117.60       0.00       0.00       0.00      10.17    1107.43    1117.60        1.84     1.36   1.000
  
  
  ******************
  Node Depth Summary
  ******************
  
  ---------------------------------------------------------------------------------
                                 Average  Maximum  Maximum  Time of Max    Reported
                                   Depth    Depth      HGL   Occurrence   Max Depth
  Node                 Type       Meters   Meters   Meters  days hr:min      Meters
  ---------------------------------------------------------------------------------
  J7                   JUNCTION     2.48     2.50     2.50     0  00:05        2.50
  J13                  JUNCTION     2.48     2.50     2.50     0  00:05        2.50
  J19                  JUNCTION     2.48     2.50     2.50     0  00:05        2.50
  J25                  JUNCTION     2.48     2.50     2.50     0  00:05        2.50
  J1                   JUNCTION     2.48     2.50     2.50     0  00:05        2.50
  J2                   JUNCTION     2.48     2.50     2.50     0  00:05        2.50
  J3                   JUNCTION     2.48     2.50     2.50     0  00:05        2.50
  J4                   JUNCTION     2.48     2.50     2.50     0  00:05        2.50
  J5                   JUNCTION     2.48     2.50     2.50     0  00:05        2.50
  J6                   JUNCTION     2.48     2.50     2.50     0  00:05        2.50
  J8                   JUNCTION     2.48     2.50     2.50     0  00:05        2.50
  J9                   JUNCTION     2.48     2.50     2.50     0  00:05        2.50
  J10                  JUNCTION     2.48     2.50     2.50     0  00:05        2.50
  J11                  JUNCTION     2.48     2.50     2.50     0  00:05        2.50
  J12                  JUNCTION     2.48     2.50     2.50     0  00:05        2.50
  J14                  JUNCTION     2.48     2.50     2.50     0  00:05        2.50
  J15                  JUNCTION     2.48     2.50     2.50     0  00:05        2.50
  J16                  JUNCTION     2.48     2.50     2.50     0  00:05        2.50
  J17                  JUNCTION     2.48     2.50     2.50     0  00:05        2.50
  J18                  JUNCTION     2.48     2.50     2.50     0  00:05        2.50
  J20                  JUNCTION     2.48     2.50     2.50     0  00:05        2.50
  J21                  JUNCTION     2.48     2.50     2.50     0  00:05        2.50
  J22                  JUNCTION     2.48     2.50     2.50     0  00:05        2.50
  J23                  JUNCTION     2.48     2.50     2.50     0  00:05        2.50
  J24                  JUNCTION     2.48     2.50     2.50     0  00:05        2.50
  J26                  JUNCTION     2.48     2.50     2.50     0  00:05        2.50
  J27                  JUNCTION     2.48     2.50     2.50     0  00:05        2.50
  J29                  JUNCTION     2.48     2.50     2.50     0  00:05        2.50
  J30                  JUNCTION     2.48     2.50     2.50     0  00:05        2.50
  J31                  JUNCTION     2.48     2.50     2.50     0  00:05        2.50
  J33                  JUNCTION     2.48     2.50     2.50     0  00:05        2.50
  J32                  JUNCTION     2.48     2.50     2.50     0  00:05        2.50
  J28                  JUNCTION     2.48     2.50     2.50     0  00:05        2.50
  OF                   OUTFALL      1.36     1.41     1.41     0  00:05        1.37
  
  
  *******************
  Node Inflow Summary
  *******************
  
  -------------------------------------------------------------------------------------------------
                                  Maximum  Maximum                  Lateral       Total        Flow
                                  Lateral    Total  Time of Max      Inflow      Inflow     Balance
                                   Inflow   Inflow   Occurrence      Volume      Volume       Error
  Node                 Type           CMS      CMS  days hr:min    10^6 ltr    10^6 ltr     Percent
  -------------------------------------------------------------------------------------------------
  J7                   JUNCTION    52.793   52.793     0  00:40        58.2        58.2       3.101
  J13                  JUNCTION     4.709    4.709     0  00:40        5.64        5.64       5.483
  J19                  JUNCTION   223.199  223.199     0  00:40         268         268       5.333
  J25                  JUNCTION    26.423   26.578     0  00:40          29        29.8       3.204
  J1                   JUNCTION    18.737   18.737     0  00:35        22.5        22.5       5.582
  J2                   JUNCTION    14.076   14.124     0  00:35        16.9          17       4.111
  J3                   JUNCTION     0.627   19.970     0  00:05       0.753        7.78      22.585
  J4                   JUNCTION    40.759   41.116     0  00:35        48.9        50.6       3.800
  J5                   JUNCTION    33.701   33.701     0  00:35        40.5        40.5       3.072
  J6                   JUNCTION    14.745   14.745     0  00:40        17.7        17.7       5.485
  J8                   JUNCTION    22.687   22.687     0  00:40        27.2        27.2       5.605
  J9                   JUNCTION    10.193   10.193     0  00:40        12.1        12.1       4.092
  J10                  JUNCTION    15.224   15.224     0  00:35        18.3        18.3       4.671
  J11                  JUNCTION    16.356   16.638     0  00:35        19.6        20.7       4.548
  J12                  JUNCTION    17.304   17.530     0  00:35        20.8        21.5       4.616
  J14                  JUNCTION    14.663   14.663     0  00:40        17.6        17.6       5.605
  J15                  JUNCTION    20.966   20.966     0  00:40          25          25       5.091
  J16                  JUNCTION    12.144   12.671     0  00:35        14.6          17       4.535
  J17                  JUNCTION     0.158    8.732     0  00:05        0.19        5.15      13.923
  J18                  JUNCTION     0.553    4.234     0  00:05       0.664         3.1      10.256
  J20                  JUNCTION    40.904   40.904     0  00:40        48.5        48.5       5.330
  J21                  JUNCTION    13.534   13.534     0  00:35        16.2        16.2       5.605
  J22                  JUNCTION    27.729   27.729     0  00:40        32.8        32.8       4.736
  J23                  JUNCTION    14.573   14.732     0  00:40        17.4        18.3       4.078
  J24                  JUNCTION     1.922    5.117     0  00:05        2.31         4.5       9.240
  J26                  JUNCTION    11.955   11.955     0  00:35        14.4        14.4       5.605
  J27                  JUNCTION    10.485   10.838     0  00:35        12.6        14.4       4.748
  J29                  JUNCTION    17.197   17.364     0  00:35        20.6        21.4       4.236
  J30                  JUNCTION     0.000   19.766     0  00:05           0         7.2      24.466
  J31                  JUNCTION    47.760   47.914     0  00:40        51.8        52.6       2.376
  J33                  JUNCTION    16.921   16.921     0  00:40        20.3        20.3       5.597
  J32                  JUNCTION     7.719    7.719     0  00:40        9.27        9.27       5.005
  J28                  JUNCTION    12.343   13.506     0  00:05        14.8        17.3       4.264
  OF                   OUTFALL      0.000    7.968     0  00:05           0        16.6       0.000
  
  
  **********************
  Node Surcharge Summary
  **********************
  
  Surcharging occurs when water rises above the top of the highest conduit.
  ---------------------------------------------------------------------
                                               Max. Height   Min. Depth
                                   Hours       Above Crown    Below Rim
  Node                 Type      Surcharged         Meters       Meters
  ---------------------------------------------------------------------
  J7                   JUNCTION        0.67          0.850        0.000
  J13                  JUNCTION        0.67          0.850        0.000
  J19                  JUNCTION        0.67          0.850        0.000
  J25                  JUNCTION        0.67          0.850        0.000
  J1                   JUNCTION        0.67          0.850        0.000
  J2                   JUNCTION        0.67          0.850        0.000
  J3                   JUNCTION        0.67          0.850        0.000
  J4                   JUNCTION        0.67          0.850        0.000
  J5                   JUNCTION        0.67          0.850        0.000
  J6                   JUNCTION        0.67          0.850        0.000
  J8                   JUNCTION        0.67          0.850        0.000
  J9                   JUNCTION        0.67          0.850        0.000
  J10                  JUNCTION        0.67          0.850        0.000
  J11                  JUNCTION        0.67          0.850        0.000
  J12                  JUNCTION        0.67          0.850        0.000
  J14                  JUNCTION        0.67          0.850        0.000
  J15                  JUNCTION        0.67          0.850        0.000
  J16                  JUNCTION        0.67          0.850        0.000
  J17                  JUNCTION        0.67          0.850        0.000
  J18                  JUNCTION        0.67          0.850        0.000
  J20                  JUNCTION        0.67          0.850        0.000
  J21                  JUNCTION        0.67          0.850        0.000
  J22                  JUNCTION        0.67          0.850        0.000
  J23                  JUNCTION        0.67          0.850        0.000
  J24                  JUNCTION        0.67          0.850        0.000
  J26                  JUNCTION        0.67          0.850        0.000
  J27                  JUNCTION        0.67          0.850        0.000
  J29                  JUNCTION        0.67          0.850        0.000
  J30                  JUNCTION        0.67          0.850        0.000
  J31                  JUNCTION        0.67          0.850        0.000
  J33                  JUNCTION        0.67          0.850        0.000
  J32                  JUNCTION        0.67          0.850        0.000
  J28                  JUNCTION        0.67          0.850        0.000
  
  
  *********************
  Node Flooding Summary
  *********************
  
  Flooding refers to all water that overflows a node, whether it ponds or not.
  --------------------------------------------------------------------------
                                                             Total   Maximum
                                 Maximum   Time of Max       Flood    Ponded
                        Hours       Rate    Occurrence      Volume     Depth
  Node                 Flooded       CMS   days hr:min    10^6 ltr    Meters
  --------------------------------------------------------------------------
  J7                      0.67    52.379      0  00:40      56.557     0.000
  J13                     0.67     4.708      0  00:40       5.641     0.000
  J19                     0.67   215.841      0  00:40     251.159     0.000
  J25                     0.67    26.157      0  00:40      28.305     0.000
  J1                      0.67    18.691      0  00:40      22.373     0.000
  J2                      0.67    13.783      0  00:40      14.756     0.000
  J3                      0.67    17.966      0  00:05       7.784     0.000
  J4                      0.67    40.897      0  00:35      47.047     0.000
  J5                      0.67    33.074      0  00:40      34.969     0.000
  J6                      0.67    14.637      0  00:40      17.331     0.000
  J8                      0.67    22.687      0  00:40      27.235     0.000
  J9                      0.67    10.015      0  00:40      10.898     0.000
  J10                     0.67    14.782      0  00:40      16.131     0.000
  J11                     0.67    16.334      0  00:40      18.851     0.000
  J12                     0.67    17.335      0  00:40      19.998     0.000
  J14                     0.67    14.663      0  00:40      17.602     0.000
  J15                     0.67    20.799      0  00:40      24.134     0.000
  J16                     0.67    12.463      0  00:35      15.402     0.000
  J17                     0.67     8.385      0  00:05       5.146     0.000
  J18                     0.67     3.842      0  00:05       2.711     0.000
  J20                     0.67    40.879      0  00:40      48.546     0.000
  J21                     0.67    13.534      0  00:35      16.247     0.000
  J22                     0.67    27.392      0  00:40      31.106     0.000
  J23                     0.67    14.395      0  00:40      16.017     0.000
  J24                     0.67     4.972      0  00:05       4.503     0.000
  J26                     0.67    11.955      0  00:35      14.351     0.000
  J27                     0.67    10.636      0  00:35      13.005     0.000
  J29                     0.67    17.013      0  00:40      18.980     0.000
  J30                     0.67    17.874      0  00:05       7.200     0.000
  J31                     0.67    47.477      0  00:40      50.286     0.000
  J33                     0.67    16.920      0  00:40      20.316     0.000
  J32                     0.67     7.570      0  00:40       8.553     0.000
  J28                     0.67    12.525      0  00:35      15.220     0.000
  
  
  ***********************
  Outfall Loading Summary
  ***********************
  
  -----------------------------------------------------------
                         Flow       Avg       Max       Total
                         Freq      Flow      Flow      Volume
  Outfall Node           Pcnt       CMS       CMS    10^6 ltr
  -----------------------------------------------------------
  OF                   100.00     7.312     7.968      16.642
  -----------------------------------------------------------
  System               100.00     7.312     7.968      16.642
  
  
  ********************
  Link Flow Summary
  ********************
  
  -----------------------------------------------------------------------------
                                 Maximum  Time of Max   Maximum    Max/    Max/
                                  |Flow|   Occurrence   |Veloc|    Full    Full
  Link                 Type          CMS  days hr:min     m/sec    Flow   Depth
  -----------------------------------------------------------------------------
  P1                   PUMP        0.000     0  00:00                          
  C23                  CONDUIT     0.000     0  00:00      0.00    0.00    1.00
  C24                  CONDUIT     0.833     0  00:05      0.39    7.22    1.00
  C25                  CONDUIT     0.000     0  00:00      0.00    0.00    1.00
  C26                  CONDUIT     0.437     0  00:05      0.20    3.42    1.00
  C27                  CONDUIT     0.000     0  00:00      0.00    0.00    1.00
  C28                  CONDUIT     1.848     0  00:05      0.86   12.74    1.00
  C29                  CONDUIT     0.061     0  00:05      0.03    0.43    1.00
  C30                  CONDUIT     0.851     0  00:05      0.40    7.48    1.00
  C31                  CONDUIT     0.360     0  00:05      0.17    3.15    1.00
  C32                  CONDUIT     4.831     0  00:05      2.26   31.22    1.00
  C33                  CONDUIT    12.306     0  00:05      5.75   72.00    1.00
  C34                  CONDUIT     1.037     0  00:05      0.48    8.25    1.00
  C35                  CONDUIT     0.000     0  00:05      0.00    0.00    1.00
  C36                  CONDUIT     0.250     0  00:05      0.12    2.36    1.00
  C37                  CONDUIT     1.847     0  00:05      0.86   12.68    1.00
  C38                  CONDUIT     1.336     0  00:05      0.62    9.31    1.00
  C39                  CONDUIT     2.334     0  00:05      1.09   14.79    1.00
  C40                  CONDUIT     0.000     0  00:00      0.00    0.00    1.00
  C41                  CONDUIT     0.000     0  00:00      0.00    0.00    1.00
  C43                  CONDUIT     0.000     0  00:00      0.00    0.00    1.00
  C44                  CONDUIT     0.000     0  00:05      0.00    0.00    1.00
  C45                  CONDUIT    10.912     0  00:05      5.10   93.63    1.00
  C46                  CONDUIT     5.783     0  00:05      2.70   47.92    1.00
  C48                  CONDUIT     0.000     0  00:05      0.00    0.00    1.00
  C42                  CONDUIT     3.071     0  00:05      1.44   24.35    1.00
  C50                  CONDUIT     0.688     0  00:05      0.32    6.65    1.00
  C49                  CONDUIT     0.789     0  00:05      0.37    6.89    1.00
  C01                  CONDUIT     0.000     0  00:00      0.00    0.00    1.00
  C02                  CONDUIT     0.000     0  00:00      0.00    0.00    1.00
  C03                  CONDUIT     0.982     0  00:05      0.46    7.84    1.00
  C04                  CONDUIT     0.845     0  00:05      0.40    6.65    1.00
  C05                  CONDUIT     0.490     0  00:05      0.23    3.91    1.00
  C06                  CONDUIT     0.000     0  00:00      0.00    0.00    1.00
  C07                  CONDUIT     0.000     0  00:00      0.00    0.00    1.00
  C08                  CONDUIT     0.000     0  00:00      0.00    0.00    1.00
  C09                  CONDUIT     0.820     0  00:05      0.38    7.18    1.00
  C10                  CONDUIT     0.948     0  00:05      0.44    7.56    1.00
  C11                  CONDUIT     0.000     0  00:00      0.00    0.00    1.00
  C12                  CONDUIT     2.623     0  00:05      1.23   22.60    1.00
  C13                  CONDUIT     1.158     0  00:05      0.54   10.07    1.00
  C14                  CONDUIT     3.124     0  00:05      1.46   24.82    1.00
  C15                  CONDUIT     0.268     0  00:05      0.13    2.13    1.00
  C16                  CONDUIT     3.099     0  00:05      1.45   27.20    1.00
  C17                  CONDUIT     2.591     0  00:05      1.21   22.87    1.00
  C18                  CONDUIT     0.000     0  00:00      0.00    0.00    1.00
  C19                  CONDUIT     0.000     0  00:00      0.00    0.00    1.00
  C20                  CONDUIT     2.637     0  00:05      1.23   23.48    1.00
  C21                  CONDUIT     0.000     0  00:05      0.00    0.00    1.00
  C22                  CONDUIT     0.215     0  00:05      0.10    1.70    1.00
  C47                  CONDUIT     0.813     0  00:05      0.38    8.36    1.00
  Cout                 CONDUIT     7.968     0  00:05      3.85   62.92    0.93
  
  
  ***************************
  Flow Classification Summary
  ***************************
  
  -------------------------------------------------------------------------------------
                      Adjusted    ---------- Fraction of Time in Flow Class ---------- 
                       /Actual         Up    Down  Sub   Sup   Up    Down  Norm  Inlet 
  Conduit               Length    Dry  Dry   Dry   Crit  Crit  Crit  Crit  Ltd   Ctrl  
  -------------------------------------------------------------------------------------
  C23                     1.00   0.00  0.00  0.00  1.00  0.00  0.00  0.00  0.00  0.00
  C24                     1.00   0.00  0.00  0.00  1.00  0.00  0.00  0.00  0.00  0.00
  C25                     1.00   0.00  0.00  0.00  1.00  0.00  0.00  0.00  0.00  0.00
  C26                     1.00   0.00  0.00  0.00  1.00  0.00  0.00  0.00  0.00  0.00
  C27                     1.00   0.00  0.00  0.00  1.00  0.00  0.00  0.00  0.00  0.00
  C28                     1.00   0.00  0.00  0.00  1.00  0.00  0.00  0.00  0.00  0.00
  C29                     1.00   0.00  0.00  0.00  1.00  0.00  0.00  0.00  0.00  0.00
  C30                     1.00   0.00  0.00  0.00  1.00  0.00  0.00  0.00  0.00  0.00
  C31                     1.00   0.00  0.00  0.00  1.00  0.00  0.00  0.00  0.00  0.00
  C32                     1.00   0.00  0.00  0.00  1.00  0.00  0.00  0.00  0.00  0.00
  C33                     1.00   0.00  0.00  0.00  1.00  0.00  0.00  0.00  0.00  0.00
  C34                     1.00   0.00  0.00  0.00  1.00  0.00  0.00  0.00  0.00  0.00
  C35                     1.00   0.00  0.00  0.00  1.00  0.00  0.00  0.00  0.00  0.00
  C36                     1.00   0.00  0.00  0.00  1.00  0.00  0.00  0.00  0.00  0.00
  C37                     1.00   0.00  0.00  0.00  1.00  0.00  0.00  0.00  0.00  0.00
  C38                     1.00   0.00  0.00  0.00  1.00  0.00  0.00  0.00  0.00  0.00
  C39                     1.00   0.00  0.00  0.00  1.00  0.00  0.00  0.00  0.00  0.00
  C40                     1.00   0.00  0.00  0.00  1.00  0.00  0.00  0.00  0.00  0.00
  C41                     1.00   0.00  0.00  0.00  1.00  0.00  0.00  0.00  0.00  0.00
  C43                     1.00   0.00  0.00  0.00  1.00  0.00  0.00  0.00  0.00  0.00
  C44                     1.00   0.00  0.00  0.00  1.00  0.00  0.00  0.00  0.00  0.00
  C45                     1.00   0.00  0.00  0.00  1.00  0.00  0.00  0.00  0.00  0.00
  C46                     1.00   0.00  0.00  0.00  1.00  0.00  0.00  0.00  0.00  0.00
  C48                     1.00   0.00  0.00  0.00  1.00  0.00  0.00  0.00  0.00  0.00
  C42                     1.00   0.00  0.00  0.00  1.00  0.00  0.00  0.00  0.00  0.00
  C50                     1.00   0.00  0.00  0.00  1.00  0.00  0.00  0.00  0.00  0.00
  C49                     1.00   0.00  0.00  0.00  1.00  0.00  0.00  0.00  0.00  0.00
  C01                     1.00   0.00  0.00  0.00  1.00  0.00  0.00  0.00  0.00  0.00
  C02                     1.00   0.00  0.00  0.00  1.00  0.00  0.00  0.00  0.00  0.00
  C03                     1.00   0.00  0.00  0.00  1.00  0.00  0.00  0.00  0.00  0.00
  C04                     1.00   0.00  0.00  0.00  1.00  0.00  0.00  0.00  0.00  0.00
  C05                     1.00   0.00  0.00  0.00  1.00  0.00  0.00  0.00  0.00  0.00
  C06                     1.00   0.00  0.00  0.00  1.00  0.00  0.00  0.00  0.00  0.00
  C07                     1.00   0.00  0.00  0.00  1.00  0.00  0.00  0.00  0.00  0.00
  C08                     1.00   0.00  0.00  0.00  1.00  0.00  0.00  0.00  0.00  0.00
  C09                     1.00   0.00  0.00  0.00  1.00  0.00  0.00  0.00  0.00  0.00
  C10                     1.00   0.00  0.00  0.00  1.00  0.00  0.00  0.00  0.00  0.00
  C11                     1.00   0.00  0.00  0.00  1.00  0.00  0.00  0.00  0.00  0.00
  C12                     1.00   0.00  0.00  0.00  1.00  0.00  0.00  0.00  0.00  0.00
  C13                     1.00   0.00  0.00  0.00  1.00  0.00  0.00  0.00  0.00  0.00
  C14                     1.00   0.00  0.00  0.00  1.00  0.00  0.00  0.00  0.00  0.00
  C15                     1.00   0.00  0.00  0.00  1.00  0.00  0.00  0.00  0.00  0.00
  C16                     1.00   0.00  0.00  0.00  1.00  0.00  0.00  0.00  0.00  0.00
  C17                     1.00   0.00  0.00  0.00  1.00  0.00  0.00  0.00  0.00  0.00
  C18                     1.00   0.00  0.00  0.00  1.00  0.00  0.00  0.00  0.00  0.00
  C19                     1.00   0.00  0.00  0.00  1.00  0.00  0.00  0.00  0.00  0.00
  C20                     1.00   0.00  0.00  0.00  1.00  0.00  0.00  0.00  0.00  0.00
  C21                     1.00   0.00  0.00  0.00  1.00  0.00  0.00  0.00  0.00  0.00
  C22                     1.00   0.00  0.00  0.00  1.00  0.00  0.00  0.00  0.00  0.00
  C47                     1.00   0.00  0.00  0.00  1.00  0.00  0.00  0.00  0.00  0.00
  Cout                    1.00   0.00  0.00  0.00  1.00  0.00  0.00  0.00  0.00  0.00
  
  
  *************************
  Conduit Surcharge Summary
  *************************
  
  ----------------------------------------------------------------------------
                                                           Hours        Hours 
                         --------- Hours Full --------   Above Full   Capacity
  Conduit                Both Ends  Upstream  Dnstream   Normal Flow   Limited
  ----------------------------------------------------------------------------
  C23                         0.67      0.67      0.67      0.01         0.01
  C24                         0.67      0.67      0.67      0.67         0.01
  C25                         0.67      0.67      0.67      0.01         0.01
  C26                         0.67      0.67      0.67      0.67         0.01
  C27                         0.67      0.67      0.67      0.01         0.01
  C28                         0.67      0.67      0.67      0.67         0.01
  C29                         0.67      0.67      0.67      0.01         0.01
  C30                         0.67      0.67      0.67      0.67         0.01
  C31                         0.67      0.67      0.67      0.67         0.01
  C32                         0.67      0.67      0.67      0.67         0.01
  C33                         0.67      0.67      0.67      0.67         0.01
  C34                         0.67      0.67      0.67      0.67         0.01
  C35                         0.67      0.67      0.67      0.01         0.01
  C36                         0.67      0.67      0.67      0.67         0.01
  C37                         0.67      0.67      0.67      0.67         0.01
  C38                         0.67      0.67      0.67      0.67         0.01
  C39                         0.67      0.67      0.67      0.67         0.01
  C40                         0.67      0.67      0.67      0.01         0.01
  C41                         0.67      0.67      0.67      0.01         0.01
  C43                         0.67      0.67      0.67      0.01         0.01
  C44                         0.67      0.67      0.67      0.01         0.01
  C45                         0.67      0.67      0.67      0.67         0.01
  C46                         0.67      0.67      0.67      0.67         0.01
  C48                         0.67      0.67      0.67      0.01         0.01
  C42                         0.67      0.67      0.67      0.67         0.01
  C50                         0.67      0.67      0.67      0.67         0.01
  C49                         0.67      0.67      0.67      0.67         0.01
  C01                         0.67      0.67      0.67      0.01         0.01
  C02                         0.67      0.67      0.67      0.01         0.01
  C03                         0.67      0.67      0.67      0.67         0.01
  C04                         0.67      0.67      0.67      0.67         0.01
  C05                         0.67      0.67      0.67      0.67         0.01
  C06                         0.67      0.67      0.67      0.01         0.01
  C07                         0.67      0.67      0.67      0.01         0.01
  C08                         0.67      0.67      0.67      0.01         0.01
  C09                         0.67      0.67      0.67      0.67         0.01
  C10                         0.67      0.67      0.67      0.67         0.01
  C11                         0.67      0.67      0.67      0.01         0.01
  C12                         0.67      0.67      0.67      0.67         0.01
  C13                         0.67      0.67      0.67      0.67         0.01
  C14                         0.67      0.67      0.67      0.67         0.01
  C15                         0.67      0.67      0.67      0.55         0.01
  C16                         0.67      0.67      0.67      0.67         0.01
  C17                         0.67      0.67      0.67      0.67         0.01
  C18                         0.67      0.67      0.67      0.01         0.01
  C19                         0.67      0.67      0.67      0.01         0.01
  C20                         0.67      0.67      0.67      0.67         0.01
  C21                         0.67      0.67      0.67      0.01         0.01
  C22                         0.67      0.67      0.67      0.44         0.01
  C47                         0.67      0.67      0.67      0.67         0.01
  Cout                        0.01      0.67      0.01      0.67         0.01
  
  
  ***************
  Pumping Summary
  ***************
  
  ---------------------------------------------------------------------------------------------------------
                                                  Min       Avg       Max     Total     Power    % Time Off
                        Percent   Number of      Flow      Flow      Flow    Volume     Usage    Pump Curve
  Pump                 Utilized   Start-Ups       CMS       CMS       CMS  10^6 ltr     Kw-hr    Low   High
  ---------------------------------------------------------------------------------------------------------
  P1                       0.00           0      0.00      0.00      0.00     0.000      0.00    0.0    0.0
  

  Analysis begun on:  Thu Nov 21 12:16:36 2024
  Analysis ended on:  Thu Nov 21 12:16:36 2024
  Total elapsed time: < 1 sec