
  EPA STORM WATER MANAGEMENT MODEL - VERSION 5.2 (Build 5.2.4)
  PYSWMM TOOLKIT API - VERSION v1.0 (2023-11-27)
  ------------------------------------------------------------

  WARNING 04: minimum elevation drop used for Conduit C23
  WARNING 04: minimum elevation drop used for Conduit C24
  WARNING 04: minimum elevation drop used for Conduit C25
  WARNING 04: minimum elevation drop used for Conduit C26
  WARNING 04: minimum elevation drop used for Conduit C27
  WARNING 04: minimum elevation drop used for Conduit C28
  WARNING 04: minimum elevation drop used for Conduit C29
  WARNING 04: minimum elevation drop used for Conduit C30
  WARNING 04: minimum elevation drop used for Conduit C31
  WARNING 04: minimum elevation drop used for Conduit C32
  WARNING 04: minimum elevation drop used for Conduit C33
  WARNING 04: minimum elevation drop used for Conduit C34
  WARNING 04: minimum elevation drop used for Conduit C35
  WARNING 04: minimum elevation drop used for Conduit C36
  WARNING 04: minimum elevation drop used for Conduit C37
  WARNING 04: minimum elevation drop used for Conduit C38
  WARNING 04: minimum elevation drop used for Conduit C39
  WARNING 04: minimum elevation drop used for Conduit C40
  WARNING 04: minimum elevation drop used for Conduit C41
  WARNING 04: minimum elevation drop used for Conduit C43
  WARNING 04: minimum elevation drop used for Conduit C44
  WARNING 04: minimum elevation drop used for Conduit C45
  WARNING 04: minimum elevation drop used for Conduit C46
  WARNING 04: minimum elevation drop used for Conduit C48
  WARNING 04: minimum elevation drop used for Conduit C42
  WARNING 04: minimum elevation drop used for Conduit C50
  WARNING 04: minimum elevation drop used for Conduit C49
  WARNING 04: minimum elevation drop used for Conduit C01
  WARNING 04: minimum elevation drop used for Conduit C02
  WARNING 04: minimum elevation drop used for Conduit C03
  WARNING 04: minimum elevation drop used for Conduit C04
  WARNING 04: minimum elevation drop used for Conduit C05
  WARNING 04: minimum elevation drop used for Conduit C06
  WARNING 04: minimum elevation drop used for Conduit C07
  WARNING 04: minimum elevation drop used for Conduit C08
  WARNING 04: minimum elevation drop used for Conduit C09
  WARNING 04: minimum elevation drop used for Conduit C10
  WARNING 04: minimum elevation drop used for Conduit C11
  WARNING 04: minimum elevation drop used for Conduit C12
  WARNING 04: minimum elevation drop used for Conduit C13
  WARNING 04: minimum elevation drop used for Conduit C14
  WARNING 04: minimum elevation drop used for Conduit C15
  WARNING 04: minimum elevation drop used for Conduit C16
  WARNING 04: minimum elevation drop used for Conduit C17
  WARNING 04: minimum elevation drop used for Conduit C18
  WARNING 04: minimum elevation drop used for Conduit C19
  WARNING 04: minimum elevation drop used for Conduit C20
  WARNING 04: minimum elevation drop used for Conduit C21
  WARNING 04: minimum elevation drop used for Conduit C22
  WARNING 04: minimum elevation drop used for Conduit C47
  WARNING 04: minimum elevation drop used for Conduit Cout
  
  ****************
  Analysis Options
  ****************
  Flow Units ............... CMS
  Process Models:
    Rainfall/Runoff ........ YES
    RDII ................... NO
    Snowmelt ............... NO
    Groundwater ............ NO
    Flow Routing ........... YES
    Ponding Allowed ........ NO
    Water Quality .......... NO
  Infiltration Method ...... HORTON
  Flow Routing Method ...... DYNWAVE
  Surcharge Method ......... EXTRAN
  Starting Date ............ 08/09/2022 11:00:00
  Ending Date .............. 08/09/2022 11:40:00
  Antecedent Dry Days ...... 0.0
  Report Time Step ......... 00:10:00
  Wet Time Step ............ 00:05:00
  Dry Time Step ............ 01:00:00
  Routing Time Step ........ 300.00 sec
  Variable Time Step ....... YES
  Maximum Trials ........... 8
  Number of Threads ........ 1
  Head Tolerance ........... 0.001524 m
  
  
  *********************
  Rainfall File Summary
  *********************
  Station    First        Last         Recording   Periods    Periods    Periods
  ID         Date         Date         Frequency  w/Precip    Missing    Malfunc.
  -------------------------------------------------------------------------------
  778        08/09/2022   08/09/2022      10 min         5          0          0

  
  
  **************************        Volume         Depth
  Runoff Quantity Continuity     hectare-m            mm
  **************************     ---------       -------
  Total Precipitation ......        77.467       774.700
  Evaporation Loss .........         0.000         0.000
  Infiltration Loss ........         0.000         0.000
  Surface Runoff ...........        73.110       731.132
  Final Storage ............         5.396        53.962
  Continuity Error (%) .....        -1.342
  
  
  **************************        Volume        Volume
  Flow Routing Continuity        hectare-m      10^6 ltr
  **************************     ---------     ---------
  Dry Weather Inflow .......         0.000         0.000
  Wet Weather Inflow .......        71.138       711.390
  Groundwater Inflow .......         0.000         0.000
  RDII Inflow ..............         0.000         0.000
  External Inflow ..........         0.000         0.000
  External Outflow .........         1.664        16.642
  Flooding Loss ............        65.523       655.234
  Evaporation Loss .........         0.000         0.000
  Exfiltration Loss ........         0.000         0.000
  Initial Stored Volume ....         0.046         0.463
  Final Stored Volume ......         1.883        18.831
  Continuity Error (%) .....         2.971
  
  
  *************************
  Highest Continuity Errors
  *************************
  Node J30 (19.46%)
  Node J3 (15.54%)
  Node J24 (12.91%)
  Node J17 (12.31%)
  Node J18 (9.60%)
  
  
  ***************************
  Time-Step Critical Elements
  ***************************
  Link Cout (98.69%)
  
  
  ********************************
  Highest Flow Instability Indexes
  ********************************
  Link C24 (2)
  Link C31 (2)
  Link C33 (2)
  Link C34 (2)
  Link C36 (2)
  
  
  *********************************
  Most Frequent Nonconverging Nodes
  *********************************
  Convergence obtained at all time steps.
  
  
  *************************
  Routing Time Step Summary
  *************************
  Minimum Time Step           :     4.91 sec
  Average Time Step           :    15.69 sec
  Maximum Time Step           :   300.00 sec
  % of Time in Steady State   :     0.00
  Average Iterations per Step :     2.03
  % of Steps Not Converging   :     0.00
  Time Step Frequencies       :
     300.000 - 83.462 sec      :     0.66 %
     83.462 - 23.220 sec      :     0.00 %
     23.220 -  6.460 sec      :    98.68 %
      6.460 -  1.797 sec      :     0.66 %
      1.797 -  0.500 sec      :     0.00 %
  
  
  ***************************
  Subcatchment Runoff Summary
  ***************************
  
  ------------------------------------------------------------------------------------------------------------------------------
                            Total      Total      Total      Total     Imperv       Perv      Total       Total     Peak  Runoff
                           Precip      Runon       Evap      Infil     Runoff     Runoff     Runoff      Runoff   Runoff   Coeff
  Subcatchment                 mm         mm         mm         mm         mm         mm         mm    10^6 ltr      CMS
  ------------------------------------------------------------------------------------------------------------------------------
  S1                       774.70       0.00       0.00       0.00       7.67     767.03     774.70      195.43   160.20   1.000
  S2                       774.70       0.00       0.00       0.00       7.05     768.13     775.18        6.02     4.93   1.001
  S3                       774.70       0.00       0.00       0.00       7.05     767.65     774.70        1.60     1.31   1.000
  S4                       774.70       0.00       0.00       0.00       7.05     767.65     774.70        1.59     1.30   1.000
  S5                       774.70       0.00       0.00       0.00       7.05     767.65     774.70        2.32     1.90   1.000
  S6                       774.70       0.00       0.00       0.00       7.05     767.65     774.70        6.38     5.23   1.000
  S7                       774.70       0.00       0.00       0.00       7.05     767.65     774.70        1.20     0.98   1.000
  S8                       774.70       0.00       0.00       0.00       7.05     767.65     774.70        3.77     3.09   1.000
  S9                       774.70       0.00       0.00       0.00       7.05     767.65     774.70        4.66     3.82   1.000
  S10                      774.70       0.00       0.00       0.00       0.00     767.65     767.65        1.08     0.89   0.991
  S11                      774.70       0.00       0.00       0.00       7.05     744.95     752.00       11.00     9.05   0.971
  S12                      774.70       0.00       0.00       0.00       7.05     767.65     774.70        6.72     5.51   1.000
  S13                      774.70       0.00       0.00       0.00       0.00     767.65     767.65        6.48     5.31   0.991
  S14                      774.70       0.00       0.00       0.00       6.51     768.19     774.70        6.22     5.10   1.000
  S15                      774.70       0.00       0.00       0.00       6.51     768.19     774.70        5.81     4.76   1.000
  S16                      774.70       0.00       0.00       0.00       5.97     767.16     773.12       13.65    11.21   0.998
  S17                      774.70       0.00       0.00       0.00       5.97     700.04     706.01       24.04    18.34   0.911
  S18                      774.70       0.00       0.00       0.00       5.97     768.74     774.71        1.00     0.82   1.000
  S19                      774.70       0.00       0.00       0.00       5.97       0.00       5.97        0.01     0.01   0.008
  S20                      774.70       0.00       0.00       0.00       5.97     768.74     774.71        0.79     0.65   1.000
  S21                      774.70       0.00       0.00       0.00       5.97     758.95     764.91       12.68    10.46   0.987
  S22                      774.70       0.00       0.00       0.00       5.97     768.79     774.76        0.26     0.21   1.000
  S23                      774.70       0.00       0.00       0.00       5.97     768.73     774.70        0.30     0.25   1.000
  S24                      774.70       0.00       0.00       0.00       5.97     768.73     774.70        0.38     0.31   1.000
  S25                      774.70       0.00       0.00       0.00       5.97     768.73     774.70        0.46     0.37   1.000
  S26                      774.70       0.00       0.00       0.00       5.97     768.73     774.70        0.53     0.44   1.000
  S27                      774.70       0.00       0.00       0.00       5.97     768.88     774.84        6.44     5.28   1.000
  S28                      774.70       0.00       0.00       0.00       5.97     760.61     766.58        6.81     5.61   0.990
  S29                      774.70       0.00       0.00       0.00       5.97     768.74     774.71        0.71     0.58   1.000
  S30                      774.70       0.00       0.00       0.00       5.97     677.90     683.87       43.56    31.33   0.883
  S31                      774.70       0.00       0.00       0.00       6.20     768.50     774.70       10.50     8.61   1.000
  S32                      774.70       0.00       0.00       0.00       6.20     768.50     774.70        3.23     2.65   1.000
  S33                      774.70       0.00       0.00       0.00       7.28     767.42     774.70        2.41     1.98   1.000
  S34                      774.70       0.00       0.00       0.00       7.28     767.42     774.70        2.55     2.09   1.000
  S35                      774.70       0.00       0.00       0.00       7.05     767.65     774.70        3.11     2.55   1.000
  S36                      774.70       0.00       0.00       0.00       7.05     767.65     774.70        1.28     1.05   1.000
  S37                      774.70       0.00       0.00       0.00       7.05     767.65     774.70        2.79     2.29   1.000
  S38                      774.70       0.00       0.00       0.00       7.05     767.65     774.70        0.12     0.10   1.000
  S39                      774.70       0.00       0.00       0.00       7.05     767.65     774.70        3.18     2.60   1.000
  S40                      774.70       0.00       0.00       0.00       7.05     767.65     774.70        1.09     0.90   1.000
  S41                      774.70       0.00       0.00       0.00       7.05     767.65     774.70        1.76     1.44   1.000
  S42                      774.70       0.00       0.00       0.00       7.05     767.65     774.70        2.45     2.01   1.000
  S43                      774.70       0.00       0.00       0.00       7.05     767.65     774.70        5.58     4.57   1.000
  S44                      774.70       0.00       0.00       0.00       7.05     767.65     774.70        4.04     3.32   1.000
  S45                      774.70       0.00       0.00       0.00       7.05     767.65     774.70        0.41     0.34   1.000
  S46                      774.70       0.00       0.00       0.00       7.05     767.65     774.70        3.75     3.07   1.000
  S47                      774.70       0.00       0.00       0.00       7.05     767.65     774.70        7.58     6.21   1.000
  S48                      774.70       0.00       0.00       0.00       7.05     767.65     774.70        8.75     7.18   1.000
  S49                      774.70       0.00       0.00       0.00       7.05     767.65     774.70        5.32     4.36   1.000
  S50                      774.70       0.00       0.00       0.00       7.05     767.65     774.70        4.38     3.59   1.000
  S51                      774.70       0.00       0.00       0.00       7.05     767.65     774.70        2.59     2.12   1.000
  S52                      774.70       0.00       0.00       0.00       7.05     767.65     774.70        6.86     5.62   1.000
  S53                      774.70       0.00       0.00       0.00       7.05     760.19     767.24        9.35     7.70   0.990
  S54                      774.70       0.00       0.00       0.00       7.05     768.12     775.17        3.54     2.90   1.001
  S55                      774.70       0.00       0.00       0.00       7.05     767.65     774.70        0.29     0.24   1.000
  S56                      774.70       0.00       0.00       0.00       7.05     767.63     774.68        0.29     0.24   1.000
  S57                      774.70       0.00       0.00       0.00       7.05     767.65     774.70        4.01     3.28   1.000
  S58                      774.70       0.00       0.00       0.00       7.05     767.65     774.70        5.14     4.22   1.000
  S59                      774.70       0.00       0.00       0.00       7.05     767.65     774.70        5.00     4.10   1.000
  S60                      774.70       0.00       0.00       0.00       5.97     769.15     775.11        3.05     2.50   1.001
  S61                      774.70       0.00       0.00       0.00       5.97       0.00       5.97        0.02     0.02   0.008
  S62                      774.70       0.00       0.00       0.00       5.97     662.02     667.98       35.80    24.60   0.862
  S63                      774.70       0.00       0.00       0.00       5.97     768.73     774.70        7.28     5.97   1.000
  S64                      774.70       0.00       0.00       0.00       5.97     768.73     774.70       19.72    16.16   1.000
  S65                      774.70       0.00       0.00       0.00       5.97     768.73     774.70        3.15     2.58   1.000
  S66                      774.70       0.00       0.00       0.00       5.97     768.73     774.70        5.07     4.16   1.000
  S67                      774.70       0.00       0.00       0.00       5.97     768.73     774.70        9.48     7.77   1.000
  S68                      774.70       0.00       0.00       0.00       5.97     768.73     774.70       11.12     9.11   1.000
  S69                      774.70       0.00       0.00       0.00       5.97       0.00       5.97        0.15     0.12   0.008
  S70                      774.70       0.00       0.00       0.00       5.97     758.17     764.13       20.00    16.49   0.986
  S71                      774.70       0.00       0.00       0.00       7.05     767.65     774.70       11.40     9.34   1.000
  S72                      774.70       0.00       0.00       0.00       5.97     768.00     773.96        3.84     3.15   0.999
  S73                      774.70       0.00       0.00       0.00       5.96     768.73     774.70       16.24    13.31   1.000
  S74                      774.70       0.00       0.00       0.00       5.97       0.00       5.97        0.04     0.03   0.008
  S75                      774.70       0.00       0.00       0.00       5.97     768.73     774.70        0.52     0.43   1.000
  S76                      774.70       0.00       0.00       0.00       5.97     768.73     774.70       10.23     8.39   1.000
  S77                      774.70       0.00       0.00       0.00       5.97     768.73     774.70        8.28     6.79   1.000
  S78                      774.70       0.00       0.00       0.00       5.97     768.73     774.70        6.00     4.92   1.000
  S79                      774.70       0.00       0.00       0.00       7.05     767.65     774.70        5.26     4.31   1.000
  S80                      774.70       0.00       0.00       0.00       5.97     768.86     774.82        2.14     1.75   1.000
  S81                      774.70       0.00       0.00       0.00       5.97     768.73     774.70        8.76     7.18   1.000
  S82                      774.70       0.00       0.00       0.00       5.97     768.73     774.70        8.55     7.01   1.000
  S83                      774.70       0.00       0.00       0.00       5.97     768.73     774.70        5.50     4.51   1.000
  S84                      774.70       0.00       0.00       0.00       7.05     767.65     774.70        3.59     2.95   1.000
  S85                      774.70       0.00       0.00       0.00       7.05     763.39     770.44        9.52     7.83   0.994
  S86                      774.70       0.00       0.00       0.00       0.00     767.65     767.65        8.88     7.28   0.991
  S87                      774.70       0.00       0.00       0.00       7.05     767.65     774.70        9.62     7.89   1.000
  S88                      774.70       0.00       0.00       0.00       7.05     767.65     774.70        1.74     1.42   1.000
  S89                      774.70       0.00       0.00       0.00       7.05     767.65     774.70        7.83     6.42   1.000
  S90                      774.70       0.00       0.00       0.00       0.00     767.65     767.65        3.77     3.09   0.991
  S91                      774.70       0.00       0.00       0.00       7.05     767.65     774.70        1.28     1.05   1.000
  
  
  ******************
  Node Depth Summary
  ******************
  
  ---------------------------------------------------------------------------------
                                 Average  Maximum  Maximum  Time of Max    Reported
                                   Depth    Depth      HGL   Occurrence   Max Depth
  Node                 Type       Meters   Meters   Meters  days hr:min      Meters
  ---------------------------------------------------------------------------------
  J7                   JUNCTION     2.48     2.50     2.50     0  00:05        2.50
  J13                  JUNCTION     2.48     2.50     2.50     0  00:05        2.50
  J19                  JUNCTION     2.48     2.50     2.50     0  00:05        2.50
  J25                  JUNCTION     2.48     2.50     2.50     0  00:05        2.50
  J1                   JUNCTION     2.48     2.50     2.50     0  00:05        2.50
  J2                   JUNCTION     2.48     2.50     2.50     0  00:05        2.50
  J3                   JUNCTION     2.48     2.50     2.50     0  00:05        2.50
  J4                   JUNCTION     2.48     2.50     2.50     0  00:05        2.50
  J5                   JUNCTION     2.48     2.50     2.50     0  00:05        2.50
  J6                   JUNCTION     2.48     2.50     2.50     0  00:05        2.50
  J8                   JUNCTION     2.48     2.50     2.50     0  00:05        2.50
  J9                   JUNCTION     2.48     2.50     2.50     0  00:05        2.50
  J10                  JUNCTION     2.48     2.50     2.50     0  00:05        2.50
  J11                  JUNCTION     2.48     2.50     2.50     0  00:05        2.50
  J12                  JUNCTION     2.48     2.50     2.50     0  00:05        2.50
  J14                  JUNCTION     2.48     2.50     2.50     0  00:05        2.50
  J15                  JUNCTION     2.48     2.50     2.50     0  00:05        2.50
  J16                  JUNCTION     2.48     2.50     2.50     0  00:05        2.50
  J17                  JUNCTION     2.48     2.50     2.50     0  00:05        2.50
  J18                  JUNCTION     2.48     2.50     2.50     0  00:05        2.50
  J20                  JUNCTION     2.48     2.50     2.50     0  00:05        2.50
  J21                  JUNCTION     2.48     2.50     2.50     0  00:05        2.50
  J22                  JUNCTION     2.48     2.50     2.50     0  00:05        2.50
  J23                  JUNCTION     2.48     2.50     2.50     0  00:05        2.50
  J24                  JUNCTION     2.48     2.50     2.50     0  00:05        2.50
  J26                  JUNCTION     2.48     2.50     2.50     0  00:05        2.50
  J27                  JUNCTION     2.48     2.50     2.50     0  00:05        2.50
  J29                  JUNCTION     2.48     2.50     2.50     0  00:05        2.50
  J30                  JUNCTION     2.48     2.50     2.50     0  00:05        2.50
  J31                  JUNCTION     2.48     2.50     2.50     0  00:05        2.50
  J33                  JUNCTION     2.48     2.50     2.50     0  00:05        2.50
  J32                  JUNCTION     2.48     2.50     2.50     0  00:05        2.50
  J28                  JUNCTION     2.48     2.50     2.50     0  00:05        2.50
  OF                   OUTFALL      1.36     1.41     1.41     0  00:05        1.37
  
  
  *******************
  Node Inflow Summary
  *******************
  
  -------------------------------------------------------------------------------------------------
                                  Maximum  Maximum                  Lateral       Total        Flow
                                  Lateral    Total  Time of Max      Inflow      Inflow     Balance
                                   Inflow   Inflow   Occurrence      Volume      Volume       Error
  Node                 Type           CMS      CMS  days hr:min    10^6 ltr    10^6 ltr     Percent
  -------------------------------------------------------------------------------------------------
  J7                   JUNCTION    35.053   35.053     0  00:10        46.7        46.7       2.530
  J13                  JUNCTION     3.622    3.622     0  00:10        4.31        4.31       6.376
  J19                  JUNCTION   171.675  171.675     0  00:10         204         204       6.188
  J25                  JUNCTION    18.337   18.901     0  00:10        23.2        24.1       3.312
  J1                   JUNCTION    14.413   14.413     0  00:10        17.1        17.1       6.500
  J2                   JUNCTION    10.828   10.933     0  00:05        12.9        13.1       4.520
  J3                   JUNCTION     0.483   13.784     0  00:05       0.574        6.36      18.398
  J4                   JUNCTION    31.353   32.459     0  00:05        37.3        38.6       5.265
  J5                   JUNCTION    25.924   25.924     0  00:10        30.8        30.8       3.267
  J6                   JUNCTION    11.342   11.342     0  00:10        13.5        13.5       6.348
  J8                   JUNCTION    17.452   17.452     0  00:10        20.8        20.8       6.553
  J9                   JUNCTION     7.833    7.833     0  00:10        9.28        9.28       4.489
  J10                  JUNCTION    11.711   11.711     0  00:10        13.9        13.9       5.473
  J11                  JUNCTION    12.581   13.459     0  00:05          15        16.1       5.111
  J12                  JUNCTION    13.311   13.889     0  00:05        15.8        16.7       5.233
  J14                  JUNCTION    11.279   11.279     0  00:10        13.4        13.4       6.553
  J15                  JUNCTION    16.108   16.108     0  00:10        19.1        19.1       5.835
  J16                  JUNCTION     9.342   12.002     0  00:05        11.1        13.6       5.047
  J17                  JUNCTION     0.122    8.686     0  00:05       0.145        5.08      14.033
  J18                  JUNCTION     0.425    4.116     0  00:05       0.506         2.9      10.618
  J20                  JUNCTION    31.317   31.317     0  00:10        37.2        37.2       6.151
  J21                  JUNCTION    10.411   10.411     0  00:05        12.4        12.4       6.553
  J22                  JUNCTION    21.256   21.256     0  00:10        25.1        25.1       5.327
  J23                  JUNCTION    11.207   11.781     0  00:10        13.3        14.2       4.415
  J24                  JUNCTION     1.479    8.495     0  00:05        1.76        4.73      14.825
  J26                  JUNCTION     9.196    9.196     0  00:05        10.9        10.9       6.553
  J27                  JUNCTION     8.065   10.239     0  00:05         9.6        11.4       5.357
  J29                  JUNCTION    13.229   13.697     0  00:05        15.7        16.4       5.365
  J30                  JUNCTION     0.000   18.201     0  00:05           0         6.7      24.164
  J31                  JUNCTION    31.330   31.867     0  00:10        41.9        42.7       2.199
  J33                  JUNCTION    13.016   13.016     0  00:10        15.5        15.5       6.542
  J32                  JUNCTION     5.938    5.938     0  00:05        7.06        7.06       6.093
  J28                  JUNCTION     9.494   13.237     0  00:05        11.3        13.8       4.696
  OF                   OUTFALL      0.000    7.968     0  00:05           0        16.6       0.000
  
  
  **********************
  Node Surcharge Summary
  **********************
  
  Surcharging occurs when water rises above the top of the highest conduit.
  ---------------------------------------------------------------------
                                               Max. Height   Min. Depth
                                   Hours       Above Crown    Below Rim
  Node                 Type      Surcharged         Meters       Meters
  ---------------------------------------------------------------------
  J7                   JUNCTION        0.67          0.850        0.000
  J13                  JUNCTION        0.67          0.850        0.000
  J19                  JUNCTION        0.67          0.850        0.000
  J25                  JUNCTION        0.67          0.850        0.000
  J1                   JUNCTION        0.67          0.850        0.000
  J2                   JUNCTION        0.67          0.850        0.000
  J3                   JUNCTION        0.67          0.850        0.000
  J4                   JUNCTION        0.67          0.850        0.000
  J5                   JUNCTION        0.67          0.850        0.000
  J6                   JUNCTION        0.67          0.850        0.000
  J8                   JUNCTION        0.67          0.850        0.000
  J9                   JUNCTION        0.67          0.850        0.000
  J10                  JUNCTION        0.67          0.850        0.000
  J11                  JUNCTION        0.67          0.850        0.000
  J12                  JUNCTION        0.67          0.850        0.000
  J14                  JUNCTION        0.67          0.850        0.000
  J15                  JUNCTION        0.67          0.850        0.000
  J16                  JUNCTION        0.67          0.850        0.000
  J17                  JUNCTION        0.67          0.850        0.000
  J18                  JUNCTION        0.67          0.850        0.000
  J20                  JUNCTION        0.67          0.850        0.000
  J21                  JUNCTION        0.67          0.850        0.000
  J22                  JUNCTION        0.67          0.850        0.000
  J23                  JUNCTION        0.67          0.850        0.000
  J24                  JUNCTION        0.67          0.850        0.000
  J26                  JUNCTION        0.67          0.850        0.000
  J27                  JUNCTION        0.67          0.850        0.000
  J29                  JUNCTION        0.67          0.850        0.000
  J30                  JUNCTION        0.67          0.850        0.000
  J31                  JUNCTION        0.67          0.850        0.000
  J33                  JUNCTION        0.67          0.850        0.000
  J32                  JUNCTION        0.67          0.850        0.000
  J28                  JUNCTION        0.67          0.850        0.000
  
  
  *********************
  Node Flooding Summary
  *********************
  
  Flooding refers to all water that overflows a node, whether it ponds or not.
  --------------------------------------------------------------------------
                                                             Total   Maximum
                                 Maximum   Time of Max       Flood    Ponded
                        Hours       Rate    Occurrence      Volume     Depth
  Node                 Flooded       CMS   days hr:min    10^6 ltr    Meters
  --------------------------------------------------------------------------
  J7                      0.67    33.825      0  00:10      44.225     0.000
  J13                     0.67     3.621      0  00:10       4.305     0.000
  J19                     0.67   164.319      0  00:10     187.544     0.000
  J25                     0.67    17.941      0  00:10      22.632     0.000
  J1                      0.67    14.316      0  00:10      16.955     0.000
  J2                      0.67     9.477      0  00:10      10.781     0.000
  J3                      0.67    12.893      0  00:05       6.363     0.000
  J4                      0.67    30.951      0  00:10      36.048     0.000
  J5                      0.67    23.455      0  00:10      25.501     0.000
  J6                      0.67    11.083      0  00:10      13.050     0.000
  J8                      0.67    17.452      0  00:10      20.761     0.000
  J9                      0.67     7.054      0  00:10       8.038     0.000
  J10                     0.67    10.482      0  00:10      11.960     0.000
  J11                     0.67    12.148      0  00:10      14.209     0.000
  J12                     0.67    12.903      0  00:10      15.179     0.000
  J14                     0.67    11.279      0  00:10      13.418     0.000
  J15                     0.67    15.545      0  00:10      18.234     0.000
  J16                     0.67     9.994      0  00:10      11.969     0.000
  J17                     0.67     8.341      0  00:05       5.076     0.000
  J18                     0.67     3.744      0  00:05       2.524     0.000
  J20                     0.67    31.301      0  00:10      37.171     0.000
  J21                     0.67    10.411      0  00:05      12.385     0.000
  J22                     0.67    20.152      0  00:10      23.430     0.000
  J23                     0.67    10.331      0  00:10      11.843     0.000
  J24                     0.67     7.936      0  00:05       4.735     0.000
  J26                     0.67     9.196      0  00:05      10.940     0.000
  J27                     0.67     8.399      0  00:10      10.055     0.000
  J29                     0.67    12.400      0  00:10      14.502     0.000
  J30                     0.67    16.412      0  00:05       6.698     0.000
  J31                     0.67    30.662      0  00:10      40.453     0.000
  J33                     0.67    13.016      0  00:10      15.488     0.000
  J32                     0.67     5.638      0  00:10       6.561     0.000
  J28                     0.67    10.001      0  00:09      11.713     0.000
  
  
  ***********************
  Outfall Loading Summary
  ***********************
  
  -----------------------------------------------------------
                         Flow       Avg       Max       Total
                         Freq      Flow      Flow      Volume
  Outfall Node           Pcnt       CMS       CMS    10^6 ltr
  -----------------------------------------------------------
  OF                   100.00     7.312     7.968      16.642
  -----------------------------------------------------------
  System               100.00     7.312     7.968      16.642
  
  
  ********************
  Link Flow Summary
  ********************
  
  -----------------------------------------------------------------------------
                                 Maximum  Time of Max   Maximum    Max/    Max/
                                  |Flow|   Occurrence   |Veloc|    Full    Full
  Link                 Type          CMS  days hr:min     m/sec    Flow   Depth
  -----------------------------------------------------------------------------
  P1                   PUMP        0.000     0  00:00                          
  C23                  CONDUIT     0.000     0  00:00      0.00    0.00    1.00
  C24                  CONDUIT     0.853     0  00:05      0.40    7.39    1.00
  C25                  CONDUIT     0.000     0  00:00      0.00    0.00    1.00
  C26                  CONDUIT     0.480     0  00:05      0.22    3.76    1.00
  C27                  CONDUIT     0.000     0  00:00      0.00    0.00    1.00
  C28                  CONDUIT     1.876     0  00:05      0.88   12.93    1.00
  C29                  CONDUIT     0.105     0  00:05      0.05    0.74    1.00
  C30                  CONDUIT     0.501     0  00:05      0.23    4.40    1.00
  C31                  CONDUIT     0.398     0  00:05      0.19    3.48    1.00
  C32                  CONDUIT     4.839     0  00:05      2.26   31.27    1.00
  C33                  CONDUIT     6.154     0  00:05      2.88   36.01    1.00
  C34                  CONDUIT     0.605     0  00:05      0.28    4.81    1.00
  C35                  CONDUIT     0.000     0  00:05      0.00    0.00    1.00
  C36                  CONDUIT     0.324     0  00:05      0.15    3.05    1.00
  C37                  CONDUIT     1.866     0  00:05      0.87   12.81    1.00
  C38                  CONDUIT     1.392     0  00:05      0.65    9.70    1.00
  C39                  CONDUIT     2.308     0  00:05      1.08   14.63    1.00
  C40                  CONDUIT     0.000     0  00:00      0.00    0.00    1.00
  C41                  CONDUIT     0.000     0  00:00      0.00    0.00    1.00
  C43                  CONDUIT     0.000     0  00:00      0.00    0.00    1.00
  C44                  CONDUIT     0.078     0  00:05      0.04    0.67    1.00
  C45                  CONDUIT    10.912     0  00:05      5.10   93.63    1.00
  C46                  CONDUIT     5.774     0  00:05      2.70   47.84    1.00
  C48                  CONDUIT     0.000     0  00:05      0.00    0.00    1.00
  C42                  CONDUIT     1.515     0  00:05      0.71   12.01    1.00
  C50                  CONDUIT     0.390     0  00:05      0.18    3.77    1.00
  C49                  CONDUIT     0.807     0  00:05      0.38    7.04    1.00
  C01                  CONDUIT     0.000     0  00:00      0.00    0.00    1.00
  C02                  CONDUIT     0.000     0  00:00      0.00    0.00    1.00
  C03                  CONDUIT     1.029     0  00:05      0.48    8.21    1.00
  C04                  CONDUIT     1.008     0  00:05      0.47    7.93    1.00
  C05                  CONDUIT     0.418     0  00:05      0.20    3.33    1.00
  C06                  CONDUIT     0.000     0  00:00      0.00    0.00    1.00
  C07                  CONDUIT     0.000     0  00:00      0.00    0.00    1.00
  C08                  CONDUIT     0.000     0  00:00      0.00    0.00    1.00
  C09                  CONDUIT     0.839     0  00:05      0.39    7.34    1.00
  C10                  CONDUIT     0.969     0  00:05      0.45    7.73    1.00
  C11                  CONDUIT     0.000     0  00:00      0.00    0.00    1.00
  C12                  CONDUIT     2.611     0  00:05      1.22   22.50    1.00
  C13                  CONDUIT     1.067     0  00:05      0.50    9.28    1.00
  C14                  CONDUIT     3.118     0  00:05      1.46   24.77    1.00
  C15                  CONDUIT     0.252     0  00:05      0.12    2.00    1.00
  C16                  CONDUIT     6.598     0  00:05      3.09   57.92    1.00
  C17                  CONDUIT     2.583     0  00:05      1.21   22.80    1.00
  C18                  CONDUIT     0.000     0  00:00      0.00    0.00    1.00
  C19                  CONDUIT     0.000     0  00:00      0.00    0.00    1.00
  C20                  CONDUIT     2.624     0  00:05      1.23   23.36    1.00
  C21                  CONDUIT     0.000     0  00:05      0.00    0.00    1.00
  C22                  CONDUIT     0.254     0  00:05      0.12    2.01    1.00
  C47                  CONDUIT     0.925     0  00:05      0.43    9.51    1.00
  Cout                 CONDUIT     7.968     0  00:05      3.85   62.92    0.93
  
  
  ***************************
  Flow Classification Summary
  ***************************
  
  -------------------------------------------------------------------------------------
                      Adjusted    ---------- Fraction of Time in Flow Class ---------- 
                       /Actual         Up    Down  Sub   Sup   Up    Down  Norm  Inlet 
  Conduit               Length    Dry  Dry   Dry   Crit  Crit  Crit  Crit  Ltd   Ctrl  
  -------------------------------------------------------------------------------------
  C23                     1.00   0.00  0.00  0.00  1.00  0.00  0.00  0.00  0.00  0.00
  C24                     1.00   0.00  0.00  0.00  1.00  0.00  0.00  0.00  0.00  0.00
  C25                     1.00   0.00  0.00  0.00  1.00  0.00  0.00  0.00  0.00  0.00
  C26                     1.00   0.00  0.00  0.00  1.00  0.00  0.00  0.00  0.00  0.00
  C27                     1.00   0.00  0.00  0.00  1.00  0.00  0.00  0.00  0.00  0.00
  C28                     1.00   0.00  0.00  0.00  1.00  0.00  0.00  0.00  0.00  0.00
  C29                     1.00   0.00  0.00  0.00  1.00  0.00  0.00  0.00  0.00  0.00
  C30                     1.00   0.00  0.00  0.00  1.00  0.00  0.00  0.00  0.00  0.00
  C31                     1.00   0.00  0.00  0.00  1.00  0.00  0.00  0.00  0.00  0.00
  C32                     1.00   0.00  0.00  0.00  1.00  0.00  0.00  0.00  0.00  0.00
  C33                     1.00   0.00  0.00  0.00  1.00  0.00  0.00  0.00  0.00  0.00
  C34                     1.00   0.00  0.00  0.00  1.00  0.00  0.00  0.00  0.00  0.00
  C35                     1.00   0.00  0.00  0.00  1.00  0.00  0.00  0.00  0.00  0.00
  C36                     1.00   0.00  0.00  0.00  1.00  0.00  0.00  0.00  0.00  0.00
  C37                     1.00   0.00  0.00  0.00  1.00  0.00  0.00  0.00  0.00  0.00
  C38                     1.00   0.00  0.00  0.00  1.00  0.00  0.00  0.00  0.00  0.00
  C39                     1.00   0.00  0.00  0.00  1.00  0.00  0.00  0.00  0.00  0.00
  C40                     1.00   0.00  0.00  0.00  1.00  0.00  0.00  0.00  0.00  0.00
  C41                     1.00   0.00  0.00  0.00  1.00  0.00  0.00  0.00  0.00  0.00
  C43                     1.00   0.00  0.00  0.00  1.00  0.00  0.00  0.00  0.00  0.00
  C44                     1.00   0.00  0.00  0.00  1.00  0.00  0.00  0.00  0.00  0.00
  C45                     1.00   0.00  0.00  0.00  1.00  0.00  0.00  0.00  0.00  0.00
  C46                     1.00   0.00  0.00  0.00  1.00  0.00  0.00  0.00  0.00  0.00
  C48                     1.00   0.00  0.00  0.00  1.00  0.00  0.00  0.00  0.00  0.00
  C42                     1.00   0.00  0.00  0.00  1.00  0.00  0.00  0.00  0.00  0.00
  C50                     1.00   0.00  0.00  0.00  1.00  0.00  0.00  0.00  0.00  0.00
  C49                     1.00   0.00  0.00  0.00  1.00  0.00  0.00  0.00  0.00  0.00
  C01                     1.00   0.00  0.00  0.00  1.00  0.00  0.00  0.00  0.00  0.00
  C02                     1.00   0.00  0.00  0.00  1.00  0.00  0.00  0.00  0.00  0.00
  C03                     1.00   0.00  0.00  0.00  1.00  0.00  0.00  0.00  0.00  0.00
  C04                     1.00   0.00  0.00  0.00  1.00  0.00  0.00  0.00  0.00  0.00
  C05                     1.00   0.00  0.00  0.00  1.00  0.00  0.00  0.00  0.00  0.00
  C06                     1.00   0.00  0.00  0.00  1.00  0.00  0.00  0.00  0.00  0.00
  C07                     1.00   0.00  0.00  0.00  1.00  0.00  0.00  0.00  0.00  0.00
  C08                     1.00   0.00  0.00  0.00  1.00  0.00  0.00  0.00  0.00  0.00
  C09                     1.00   0.00  0.00  0.00  1.00  0.00  0.00  0.00  0.00  0.00
  C10                     1.00   0.00  0.00  0.00  1.00  0.00  0.00  0.00  0.00  0.00
  C11                     1.00   0.00  0.00  0.00  1.00  0.00  0.00  0.00  0.00  0.00
  C12                     1.00   0.00  0.00  0.00  1.00  0.00  0.00  0.00  0.00  0.00
  C13                     1.00   0.00  0.00  0.00  1.00  0.00  0.00  0.00  0.00  0.00
  C14                     1.00   0.00  0.00  0.00  1.00  0.00  0.00  0.00  0.00  0.00
  C15                     1.00   0.00  0.00  0.00  1.00  0.00  0.00  0.00  0.00  0.00
  C16                     1.00   0.00  0.00  0.00  1.00  0.00  0.00  0.00  0.00  0.00
  C17                     1.00   0.00  0.00  0.00  1.00  0.00  0.00  0.00  0.00  0.00
  C18                     1.00   0.00  0.00  0.00  1.00  0.00  0.00  0.00  0.00  0.00
  C19                     1.00   0.00  0.00  0.00  1.00  0.00  0.00  0.00  0.00  0.00
  C20                     1.00   0.00  0.00  0.00  1.00  0.00  0.00  0.00  0.00  0.00
  C21                     1.00   0.00  0.00  0.00  1.00  0.00  0.00  0.00  0.00  0.00
  C22                     1.00   0.00  0.00  0.00  1.00  0.00  0.00  0.00  0.00  0.00
  C47                     1.00   0.00  0.00  0.00  1.00  0.00  0.00  0.00  0.00  0.00
  Cout                    1.00   0.00  0.00  0.00  1.00  0.00  0.00  0.00  0.00  0.00
  
  
  *************************
  Conduit Surcharge Summary
  *************************
  
  ----------------------------------------------------------------------------
                                                           Hours        Hours 
                         --------- Hours Full --------   Above Full   Capacity
  Conduit                Both Ends  Upstream  Dnstream   Normal Flow   Limited
  ----------------------------------------------------------------------------
  C23                         0.67      0.67      0.67      0.01         0.01
  C24                         0.67      0.67      0.67      0.67         0.01
  C25                         0.67      0.67      0.67      0.01         0.01
  C26                         0.67      0.67      0.67      0.67         0.01
  C27                         0.67      0.67      0.67      0.01         0.01
  C28                         0.67      0.67      0.67      0.67         0.01
  C29                         0.67      0.67      0.67      0.01         0.01
  C30                         0.67      0.67      0.67      0.67         0.01
  C31                         0.67      0.67      0.67      0.67         0.01
  C32                         0.67      0.67      0.67      0.67         0.01
  C33                         0.67      0.67      0.67      0.67         0.01
  C34                         0.67      0.67      0.67      0.67         0.01
  C35                         0.67      0.67      0.67      0.01         0.01
  C36                         0.67      0.67      0.67      0.67         0.01
  C37                         0.67      0.67      0.67      0.67         0.01
  C38                         0.67      0.67      0.67      0.67         0.01
  C39                         0.67      0.67      0.67      0.67         0.01
  C40                         0.67      0.67      0.67      0.01         0.01
  C41                         0.67      0.67      0.67      0.01         0.01
  C43                         0.67      0.67      0.67      0.01         0.01
  C44                         0.67      0.67      0.67      0.01         0.01
  C45                         0.67      0.67      0.67      0.67         0.01
  C46                         0.67      0.67      0.67      0.67         0.01
  C48                         0.67      0.67      0.67      0.01         0.01
  C42                         0.67      0.67      0.67      0.67         0.01
  C50                         0.67      0.67      0.67      0.67         0.01
  C49                         0.67      0.67      0.67      0.67         0.01
  C01                         0.67      0.67      0.67      0.01         0.01
  C02                         0.67      0.67      0.67      0.01         0.01
  C03                         0.67      0.67      0.67      0.67         0.01
  C04                         0.67      0.67      0.67      0.67         0.01
  C05                         0.67      0.67      0.67      0.67         0.01
  C06                         0.67      0.67      0.67      0.01         0.01
  C07                         0.67      0.67      0.67      0.01         0.01
  C08                         0.67      0.67      0.67      0.01         0.01
  C09                         0.67      0.67      0.67      0.67         0.01
  C10                         0.67      0.67      0.67      0.67         0.01
  C11                         0.67      0.67      0.67      0.01         0.01
  C12                         0.67      0.67      0.67      0.67         0.01
  C13                         0.67      0.67      0.67      0.67         0.01
  C14                         0.67      0.67      0.67      0.67         0.01
  C15                         0.67      0.67      0.67      0.52         0.01
  C16                         0.67      0.67      0.67      0.67         0.01
  C17                         0.67      0.67      0.67      0.67         0.01
  C18                         0.67      0.67      0.67      0.01         0.01
  C19                         0.67      0.67      0.67      0.01         0.01
  C20                         0.67      0.67      0.67      0.67         0.01
  C21                         0.67      0.67      0.67      0.01         0.01
  C22                         0.67      0.67      0.67      0.52         0.01
  C47                         0.67      0.67      0.67      0.67         0.01
  Cout                        0.01      0.67      0.01      0.67         0.01
  
  
  ***************
  Pumping Summary
  ***************
  
  ---------------------------------------------------------------------------------------------------------
                                                  Min       Avg       Max     Total     Power    % Time Off
                        Percent   Number of      Flow      Flow      Flow    Volume     Usage    Pump Curve
  Pump                 Utilized   Start-Ups       CMS       CMS       CMS  10^6 ltr     Kw-hr    Low   High
  ---------------------------------------------------------------------------------------------------------
  P1                       0.00           0      0.00      0.00      0.00     0.000      0.00    0.0    0.0
  

  Analysis begun on:  Thu Nov 21 12:17:03 2024
  Analysis ended on:  Thu Nov 21 12:17:03 2024
  Total elapsed time: < 1 sec