
  EPA STORM WATER MANAGEMENT MODEL - VERSION 5.2 (Build 5.2.4)
  PYSWMM TOOLKIT API - VERSION v1.0 (2023-11-27)
  ------------------------------------------------------------

  WARNING 04: minimum elevation drop used for Conduit C23
  WARNING 04: minimum elevation drop used for Conduit C24
  WARNING 04: minimum elevation drop used for Conduit C25
  WARNING 04: minimum elevation drop used for Conduit C26
  WARNING 04: minimum elevation drop used for Conduit C27
  WARNING 04: minimum elevation drop used for Conduit C28
  WARNING 04: minimum elevation drop used for Conduit C29
  WARNING 04: minimum elevation drop used for Conduit C30
  WARNING 04: minimum elevation drop used for Conduit C31
  WARNING 04: minimum elevation drop used for Conduit C32
  WARNING 04: minimum elevation drop used for Conduit C33
  WARNING 04: minimum elevation drop used for Conduit C34
  WARNING 04: minimum elevation drop used for Conduit C35
  WARNING 04: minimum elevation drop used for Conduit C36
  WARNING 04: minimum elevation drop used for Conduit C37
  WARNING 04: minimum elevation drop used for Conduit C38
  WARNING 04: minimum elevation drop used for Conduit C39
  WARNING 04: minimum elevation drop used for Conduit C40
  WARNING 04: minimum elevation drop used for Conduit C41
  WARNING 04: minimum elevation drop used for Conduit C43
  WARNING 04: minimum elevation drop used for Conduit C44
  WARNING 04: minimum elevation drop used for Conduit C45
  WARNING 04: minimum elevation drop used for Conduit C46
  WARNING 04: minimum elevation drop used for Conduit C48
  WARNING 04: minimum elevation drop used for Conduit C42
  WARNING 04: minimum elevation drop used for Conduit C50
  WARNING 04: minimum elevation drop used for Conduit C49
  WARNING 04: minimum elevation drop used for Conduit C01
  WARNING 04: minimum elevation drop used for Conduit C02
  WARNING 04: minimum elevation drop used for Conduit C03
  WARNING 04: minimum elevation drop used for Conduit C04
  WARNING 04: minimum elevation drop used for Conduit C05
  WARNING 04: minimum elevation drop used for Conduit C06
  WARNING 04: minimum elevation drop used for Conduit C07
  WARNING 04: minimum elevation drop used for Conduit C08
  WARNING 04: minimum elevation drop used for Conduit C09
  WARNING 04: minimum elevation drop used for Conduit C10
  WARNING 04: minimum elevation drop used for Conduit C11
  WARNING 04: minimum elevation drop used for Conduit C12
  WARNING 04: minimum elevation drop used for Conduit C13
  WARNING 04: minimum elevation drop used for Conduit C14
  WARNING 04: minimum elevation drop used for Conduit C15
  WARNING 04: minimum elevation drop used for Conduit C16
  WARNING 04: minimum elevation drop used for Conduit C17
  WARNING 04: minimum elevation drop used for Conduit C18
  WARNING 04: minimum elevation drop used for Conduit C19
  WARNING 04: minimum elevation drop used for Conduit C20
  WARNING 04: minimum elevation drop used for Conduit C21
  WARNING 04: minimum elevation drop used for Conduit C22
  WARNING 04: minimum elevation drop used for Conduit C47
  WARNING 04: minimum elevation drop used for Conduit Cout
  
  ****************
  Analysis Options
  ****************
  Flow Units ............... CMS
  Process Models:
    Rainfall/Runoff ........ YES
    RDII ................... NO
    Snowmelt ............... NO
    Groundwater ............ NO
    Flow Routing ........... YES
    Ponding Allowed ........ NO
    Water Quality .......... NO
  Infiltration Method ...... HORTON
  Flow Routing Method ...... DYNWAVE
  Surcharge Method ......... EXTRAN
  Starting Date ............ 10/28/2022 12:00:00
  Ending Date .............. 10/28/2022 12:40:00
  Antecedent Dry Days ...... 0.0
  Report Time Step ......... 00:10:00
  Wet Time Step ............ 00:05:00
  Dry Time Step ............ 01:00:00
  Routing Time Step ........ 300.00 sec
  Variable Time Step ....... YES
  Maximum Trials ........... 8
  Number of Threads ........ 1
  Head Tolerance ........... 0.001524 m
  
  
  *********************
  Rainfall File Summary
  *********************
  Station    First        Last         Recording   Periods    Periods    Periods
  ID         Date         Date         Frequency  w/Precip    Missing    Malfunc.
  -------------------------------------------------------------------------------
  181        10/28/2022   10/28/2022      10 min         5          0          0

  
  
  **************************        Volume         Depth
  Runoff Quantity Continuity     hectare-m            mm
  **************************     ---------       -------
  Total Precipitation ......       132.075      1320.800
  Evaporation Loss .........         0.000         0.000
  Infiltration Loss ........         0.000         0.000
  Surface Runoff ...........       126.214      1262.187
  Final Storage ............         7.030        70.306
  Continuity Error (%) .....        -0.885
  
  
  **************************        Volume        Volume
  Flow Routing Continuity        hectare-m      10^6 ltr
  **************************     ---------     ---------
  Dry Weather Inflow .......         0.000         0.000
  Wet Weather Inflow .......       126.286      1262.876
  Groundwater Inflow .......         0.000         0.000
  RDII Inflow ..............         0.000         0.000
  External Inflow ..........         0.000         0.000
  External Outflow .........         1.664        16.644
  Flooding Loss ............       118.953      1189.541
  Evaporation Loss .........         0.000         0.000
  Exfiltration Loss ........         0.000         0.000
  Initial Stored Volume ....         0.046         0.463
  Final Stored Volume ......         1.883        18.831
  Continuity Error (%) .....         3.033
  
  
  *************************
  Highest Continuity Errors
  *************************
  Node J30 (21.89%)
  Node J3 (18.30%)
  Node J17 (15.35%)
  Node J18 (15.00%)
  Node J24 (5.42%)
  
  
  ***************************
  Time-Step Critical Elements
  ***************************
  Link Cout (98.69%)
  
  
  ********************************
  Highest Flow Instability Indexes
  ********************************
  Link C24 (2)
  Link C31 (2)
  Link C33 (2)
  Link C34 (2)
  Link C46 (2)
  
  
  *********************************
  Most Frequent Nonconverging Nodes
  *********************************
  Convergence obtained at all time steps.
  
  
  *************************
  Routing Time Step Summary
  *************************
  Minimum Time Step           :     4.82 sec
  Average Time Step           :    15.69 sec
  Maximum Time Step           :   300.00 sec
  % of Time in Steady State   :     0.00
  Average Iterations per Step :     2.02
  % of Steps Not Converging   :     0.00
  Time Step Frequencies       :
     300.000 - 83.462 sec      :     0.66 %
     83.462 - 23.220 sec      :     0.00 %
     23.220 -  6.460 sec      :    98.68 %
      6.460 -  1.797 sec      :     0.66 %
      1.797 -  0.500 sec      :     0.00 %
  
  
  ***************************
  Subcatchment Runoff Summary
  ***************************
  
  ------------------------------------------------------------------------------------------------------------------------------
                            Total      Total      Total      Total     Imperv       Perv      Total       Total     Peak  Runoff
                           Precip      Runon       Evap      Infil     Runoff     Runoff     Runoff      Runoff   Runoff   Coeff
  Subcatchment                 mm         mm         mm         mm         mm         mm         mm    10^6 ltr      CMS
  ------------------------------------------------------------------------------------------------------------------------------
  S1                      1320.80       0.00       0.00       0.00      13.08    1307.72    1320.80      333.19   229.62   1.000
  S2                      1320.80       0.00       0.00       0.00      12.02    1314.52    1326.54       10.31     7.07   1.004
  S3                      1320.80       0.00       0.00       0.00      12.02    1308.78    1320.80        2.73     1.88   1.000
  S4                      1320.80       0.00       0.00       0.00      12.02    1308.78    1320.80        2.71     1.87   1.000
  S5                      1320.80       0.00       0.00       0.00      12.02    1308.78    1320.80        3.95     2.72   1.000
  S6                      1320.80       0.00       0.00       0.00      12.02    1308.78    1320.80       10.88     7.50   1.000
  S7                      1320.80       0.00       0.00       0.00      12.02    1308.78    1320.80        2.05     1.41   1.000
  S8                      1320.80       0.00       0.00       0.00      12.02    1308.78    1320.80        6.43     4.43   1.000
  S9                      1320.80       0.00       0.00       0.00      12.02    1308.78    1320.80        7.95     5.48   1.000
  S10                     1320.80       0.00       0.00       0.00       0.00    1308.78    1308.78        1.85     1.27   0.991
  S11                     1320.80       0.00       0.00       0.00      12.02    1313.17    1325.19       19.39    13.15   1.003
  S12                     1320.80       0.00       0.00       0.00      12.02    1308.78    1320.80       11.46     7.90   1.000
  S13                     1320.80       0.00       0.00       0.00       0.00    1308.78    1308.78       11.05     7.61   0.991
  S14                     1320.80       0.00       0.00       0.00      11.09    1309.71    1320.80       10.61     7.31   1.000
  S15                     1320.80       0.00       0.00       0.00      11.09    1309.71    1320.80        9.91     6.83   1.000
  S16                     1320.80       0.00       0.00       0.00      10.17    1323.54    1333.71       23.55    16.07   1.010
  S17                     1320.80       0.00       0.00       0.00      10.17    1266.04    1276.21       43.46    27.86   0.966
  S18                     1320.80       0.00       0.00       0.00      10.17    1310.82    1320.99        1.70     1.17   1.000
  S19                     1320.80       0.00       0.00       0.00      10.17       0.00      10.17        0.02     0.02   0.008
  S20                     1320.80       0.00       0.00       0.00      10.17    1310.74    1320.91        1.35     0.93   1.000
  S21                     1320.80       0.00       0.00       0.00      10.17    1323.44    1333.61       22.11    15.05   1.010
  S22                     1320.80       0.00       0.00       0.00      10.17    1310.53    1320.70        0.44     0.30   1.000
  S23                     1320.80       0.00       0.00       0.00      10.17    1310.63    1320.80        0.52     0.36   1.000
  S24                     1320.80       0.00       0.00       0.00      10.17    1310.63    1320.80        0.65     0.45   1.000
  S25                     1320.80       0.00       0.00       0.00      10.17    1310.63    1320.80        0.78     0.54   1.000
  S26                     1320.80       0.00       0.00       0.00      10.17    1310.63    1320.80        0.91     0.63   1.000
  S27                     1320.80       0.00       0.00       0.00      10.17    1312.64    1322.81       10.99     7.56   1.002
  S28                     1320.80       0.00       0.00       0.00      10.17    1324.04    1334.21       11.85     8.07   1.010
  S29                     1320.80       0.00       0.00       0.00      10.17    1310.59    1320.76        1.22     0.84   1.000
  S30                     1320.80       0.00       0.00       0.00      10.17    1238.25    1248.42       79.52    49.38   0.945
  S31                     1320.80       0.00       0.00       0.00      10.57    1310.23    1320.80       17.90    12.33   1.000
  S32                     1320.80       0.00       0.00       0.00      10.57    1310.23    1320.80        5.51     3.80   1.000
  S33                     1320.80       0.00       0.00       0.00      12.42    1308.38    1320.80        4.11     2.83   1.000
  S34                     1320.80       0.00       0.00       0.00      12.42    1308.38    1320.80        4.35     2.99   1.000
  S35                     1320.80       0.00       0.00       0.00      12.02    1308.78    1320.80        5.31     3.66   1.000
  S36                     1320.80       0.00       0.00       0.00      12.02    1308.78    1320.80        2.18     1.50   1.000
  S37                     1320.80       0.00       0.00       0.00      12.02    1308.78    1320.80        4.75     3.28   1.000
  S38                     1320.80       0.00       0.00       0.00      12.02    1308.78    1320.80        0.21     0.15   1.000
  S39                     1320.80       0.00       0.00       0.00      12.02    1308.78    1320.80        5.42     3.73   1.000
  S40                     1320.80       0.00       0.00       0.00      12.02    1308.78    1320.80        1.86     1.28   1.000
  S41                     1320.80       0.00       0.00       0.00      12.02    1308.78    1320.80        3.00     2.07   1.000
  S42                     1320.80       0.00       0.00       0.00      12.02    1308.78    1320.80        4.17     2.88   1.000
  S43                     1320.80       0.00       0.00       0.00      12.02    1308.78    1320.80        9.51     6.55   1.000
  S44                     1320.80       0.00       0.00       0.00      12.02    1308.78    1320.80        6.89     4.75   1.000
  S45                     1320.80       0.00       0.00       0.00      12.02    1308.78    1320.80        0.70     0.48   1.000
  S46                     1320.80       0.00       0.00       0.00      12.02    1308.78    1320.80        6.39     4.41   1.000
  S47                     1320.80       0.00       0.00       0.00      12.02    1308.78    1320.80       12.92     8.90   1.000
  S48                     1320.80       0.00       0.00       0.00      12.02    1308.78    1320.80       14.93    10.29   1.000
  S49                     1320.80       0.00       0.00       0.00      12.02    1308.78    1320.80        9.07     6.25   1.000
  S50                     1320.80       0.00       0.00       0.00      12.02    1308.78    1320.80        7.48     5.15   1.000
  S51                     1320.80       0.00       0.00       0.00      12.02    1308.78    1320.80        4.41     3.04   1.000
  S52                     1320.80       0.00       0.00       0.00      12.02    1308.78    1320.80       11.69     8.06   1.000
  S53                     1320.80       0.00       0.00       0.00      12.02    1322.36    1334.38       16.25    11.07   1.010
  S54                     1320.80       0.00       0.00       0.00      12.02    1316.57    1328.59        6.07     4.16   1.006
  S55                     1320.80       0.00       0.00       0.00      12.02    1308.78    1320.80        0.50     0.35   1.000
  S56                     1320.80       0.00       0.00       0.00      12.02    1308.71    1320.72        0.50     0.35   1.000
  S57                     1320.80       0.00       0.00       0.00      12.02    1308.78    1320.80        6.83     4.71   1.000
  S58                     1320.80       0.00       0.00       0.00      12.02    1308.78    1320.80        8.77     6.04   1.000
  S59                     1320.80       0.00       0.00       0.00      12.02    1308.78    1320.80        8.52     5.87   1.000
  S60                     1320.80       0.00       0.00       0.00      10.17    1315.31    1325.48        5.21     3.58   1.004
  S61                     1320.80       0.00       0.00       0.00      10.17       0.00      10.17        0.03     0.02   0.008
  S62                     1320.80       0.00       0.00       0.00      10.17    1217.42    1227.59       65.79    41.11   0.929
  S63                     1320.80       0.00       0.00       0.00      10.17    1310.63    1320.80       12.42     8.56   1.000
  S64                     1320.80       0.00       0.00       0.00      10.17    1310.63    1320.80       33.61    23.17   1.000
  S65                     1320.80       0.00       0.00       0.00      10.17    1310.63    1320.80        5.36     3.70   1.000
  S66                     1320.80       0.00       0.00       0.00      10.17    1310.63    1320.80        8.65     5.96   1.000
  S67                     1320.80       0.00       0.00       0.00      10.17    1310.63    1320.80       16.17    11.14   1.000
  S68                     1320.80       0.00       0.00       0.00      10.17    1310.63    1320.80       18.95    13.06   1.000
  S69                     1320.80       0.00       0.00       0.00      10.17       0.00      10.17        0.25     0.17   0.008
  S70                     1320.80       0.00       0.00       0.00      10.17    1323.10    1333.27       34.89    23.75   1.009
  S71                     1320.80       0.00       0.00       0.00      12.02    1308.78    1320.80       19.43    13.39   1.000
  S72                     1320.80       0.00       0.00       0.00      10.17    1322.62    1332.79        6.61     4.51   1.009
  S73                     1320.80       0.00       0.00       0.00      10.17    1310.63    1320.80       27.68    19.08   1.000
  S74                     1320.80       0.00       0.00       0.00      10.17       0.00      10.17        0.07     0.05   0.008
  S75                     1320.80       0.00       0.00       0.00      10.17    1310.63    1320.80        0.88     0.61   1.000
  S76                     1320.80       0.00       0.00       0.00      10.17    1310.63    1320.80       17.45    12.02   1.000
  S77                     1320.80       0.00       0.00       0.00      10.17    1310.63    1320.80       14.12     9.73   1.000
  S78                     1320.80       0.00       0.00       0.00      10.17    1310.63    1320.80       10.24     7.05   1.000
  S79                     1320.80       0.00       0.00       0.00      12.02    1308.78    1320.80        8.97     6.18   1.000
  S80                     1320.80       0.00       0.00       0.00      10.17    1312.47    1322.64        3.65     2.51   1.001
  S81                     1320.80       0.00       0.00       0.00      10.17    1310.63    1320.80       14.94    10.30   1.000
  S82                     1320.80       0.00       0.00       0.00      10.17    1310.63    1320.80       14.58    10.05   1.000
  S83                     1320.80       0.00       0.00       0.00      10.17    1310.63    1320.80        9.38     6.46   1.000
  S84                     1320.80       0.00       0.00       0.00      12.02    1308.78    1320.80        6.13     4.22   1.000
  S85                     1320.80       0.00       0.00       0.00      12.02    1322.70    1334.72       16.50    11.24   1.011
  S86                     1320.80       0.00       0.00       0.00       0.00    1308.78    1308.78       15.14    10.44   0.991
  S87                     1320.80       0.00       0.00       0.00      12.02    1308.78    1320.80       16.40    11.31   1.000
  S88                     1320.80       0.00       0.00       0.00      12.02    1308.78    1320.80        2.96     2.04   1.000
  S89                     1320.80       0.00       0.00       0.00      12.02    1308.78    1320.80       13.35     9.20   1.000
  S90                     1320.80       0.00       0.00       0.00       0.00    1308.78    1308.78        6.43     4.43   0.991
  S91                     1320.80       0.00       0.00       0.00      12.02    1308.78    1320.80        2.18     1.50   1.000
  
  
  ******************
  Node Depth Summary
  ******************
  
  ---------------------------------------------------------------------------------
                                 Average  Maximum  Maximum  Time of Max    Reported
                                   Depth    Depth      HGL   Occurrence   Max Depth
  Node                 Type       Meters   Meters   Meters  days hr:min      Meters
  ---------------------------------------------------------------------------------
  J7                   JUNCTION     2.48     2.50     2.50     0  00:05        2.50
  J13                  JUNCTION     2.48     2.50     2.50     0  00:05        2.50
  J19                  JUNCTION     2.48     2.50     2.50     0  00:05        2.50
  J25                  JUNCTION     2.48     2.50     2.50     0  00:05        2.50
  J1                   JUNCTION     2.48     2.50     2.50     0  00:05        2.50
  J2                   JUNCTION     2.48     2.50     2.50     0  00:05        2.50
  J3                   JUNCTION     2.48     2.50     2.50     0  00:05        2.50
  J4                   JUNCTION     2.48     2.50     2.50     0  00:05        2.50
  J5                   JUNCTION     2.48     2.50     2.50     0  00:05        2.50
  J6                   JUNCTION     2.48     2.50     2.50     0  00:05        2.50
  J8                   JUNCTION     2.48     2.50     2.50     0  00:05        2.50
  J9                   JUNCTION     2.48     2.50     2.50     0  00:05        2.50
  J10                  JUNCTION     2.48     2.50     2.50     0  00:05        2.50
  J11                  JUNCTION     2.48     2.50     2.50     0  00:05        2.50
  J12                  JUNCTION     2.48     2.50     2.50     0  00:05        2.50
  J14                  JUNCTION     2.48     2.50     2.50     0  00:05        2.50
  J15                  JUNCTION     2.48     2.50     2.50     0  00:05        2.50
  J16                  JUNCTION     2.48     2.50     2.50     0  00:05        2.50
  J17                  JUNCTION     2.48     2.50     2.50     0  00:05        2.50
  J18                  JUNCTION     2.48     2.50     2.50     0  00:05        2.50
  J20                  JUNCTION     2.48     2.50     2.50     0  00:05        2.50
  J21                  JUNCTION     2.48     2.50     2.50     0  00:05        2.50
  J22                  JUNCTION     2.48     2.50     2.50     0  00:05        2.50
  J23                  JUNCTION     2.48     2.50     2.50     0  00:05        2.50
  J24                  JUNCTION     2.48     2.50     2.50     0  00:05        2.50
  J26                  JUNCTION     2.48     2.50     2.50     0  00:05        2.50
  J27                  JUNCTION     2.48     2.50     2.50     0  00:05        2.50
  J29                  JUNCTION     2.48     2.50     2.50     0  00:05        2.50
  J30                  JUNCTION     2.48     2.50     2.50     0  00:05        2.50
  J31                  JUNCTION     2.48     2.50     2.50     0  00:05        2.50
  J33                  JUNCTION     2.48     2.50     2.50     0  00:05        2.50
  J32                  JUNCTION     2.48     2.50     2.50     0  00:05        2.50
  J28                  JUNCTION     2.48     2.50     2.50     0  00:05        2.50
  OF                   OUTFALL      1.36     1.42     1.42     0  00:05        1.37
  
  
  *******************
  Node Inflow Summary
  *******************
  
  -------------------------------------------------------------------------------------------------
                                  Maximum  Maximum                  Lateral       Total        Flow
                                  Lateral    Total  Time of Max      Inflow      Inflow     Balance
                                   Inflow   Inflow   Occurrence      Volume      Volume       Error
  Node                 Type           CMS      CMS  days hr:min    10^6 ltr    10^6 ltr     Percent
  -------------------------------------------------------------------------------------------------
  J7                   JUNCTION    54.442   54.442     0  00:30        86.6        86.6       2.988
  J13                  JUNCTION     5.193    5.193     0  00:10        7.62        7.62       5.064
  J19                  JUNCTION   246.093  246.093     0  00:10         359         359       4.966
  J25                  JUNCTION    27.860   27.929     0  00:10        42.9        43.1       2.046
  J1                   JUNCTION    20.658   20.658     0  00:10        30.1        30.1       5.170
  J2                   JUNCTION    15.520   15.520     0  00:10        22.6        22.6       4.007
  J3                   JUNCTION     0.692   21.781     0  00:05        1.01        8.52      22.398
  J4                   JUNCTION    44.940   45.152     0  00:05        65.5        65.9       3.751
  J5                   JUNCTION    37.157   37.157     0  00:10        54.1        54.1       3.553
  J6                   JUNCTION    16.257   16.257     0  00:10        23.7        23.7       5.165
  J8                   JUNCTION    25.014   25.014     0  00:05        36.4        36.4       5.170
  J9                   JUNCTION    11.243   11.243     0  00:10        16.5        16.5       4.212
  J10                  JUNCTION    16.785   16.785     0  00:10        24.5        24.5       4.864
  J11                  JUNCTION    18.033   18.467     0  00:05        26.3        26.9       3.624
  J12                  JUNCTION    19.079   19.128     0  00:05        27.8        27.9       3.655
  J14                  JUNCTION    16.166   16.166     0  00:05        23.6        23.6       5.170
  J15                  JUNCTION    23.120   23.120     0  00:10        33.8        33.8       4.830
  J16                  JUNCTION    13.390   15.222     0  00:05        19.5        21.5       4.184
  J17                  JUNCTION     0.174   14.679     0  00:05       0.254        6.86      18.129
  J18                  JUNCTION     0.610   11.640     0  00:05       0.889        5.31      17.641
  J20                  JUNCTION    45.061   45.061     0  00:10        65.8        65.8       4.914
  J21                  JUNCTION    14.922   14.922     0  00:05        21.7        21.7       5.170
  J22                  JUNCTION    30.575   30.575     0  00:10        44.8        44.8       4.579
  J23                  JUNCTION    16.072   16.500     0  00:10        23.6        24.3       3.285
  J24                  JUNCTION     2.120    3.296     0  00:05        3.09        4.39       5.731
  J26                  JUNCTION    13.181   13.181     0  00:05        19.2        19.2       5.170
  J27                  JUNCTION    11.560   14.631     0  00:05        16.9        19.1       3.866
  J29                  JUNCTION    18.961   19.362     0  00:05        27.6        28.3       3.943
  J30                  JUNCTION     0.000   25.791     0  00:05           0        8.43      28.021
  J31                  JUNCTION    49.376   49.376     0  00:30        78.2        78.2       1.604
  J33                  JUNCTION    18.656   18.656     0  00:10        27.2        27.2       5.160
  J32                  JUNCTION     8.511    8.511     0  00:05        12.4        12.4       5.038
  J28                  JUNCTION    13.609   16.529     0  00:05        19.8          22       4.037
  OF                   OUTFALL      0.000    7.984     0  00:05           0        16.6       0.000
  
  
  **********************
  Node Surcharge Summary
  **********************
  
  Surcharging occurs when water rises above the top of the highest conduit.
  ---------------------------------------------------------------------
                                               Max. Height   Min. Depth
                                   Hours       Above Crown    Below Rim
  Node                 Type      Surcharged         Meters       Meters
  ---------------------------------------------------------------------
  J7                   JUNCTION        0.67          0.850        0.000
  J13                  JUNCTION        0.67          0.850        0.000
  J19                  JUNCTION        0.67          0.850        0.000
  J25                  JUNCTION        0.67          0.850        0.000
  J1                   JUNCTION        0.67          0.850        0.000
  J2                   JUNCTION        0.67          0.850        0.000
  J3                   JUNCTION        0.67          0.850        0.000
  J4                   JUNCTION        0.67          0.850        0.000
  J5                   JUNCTION        0.67          0.850        0.000
  J6                   JUNCTION        0.67          0.850        0.000
  J8                   JUNCTION        0.67          0.850        0.000
  J9                   JUNCTION        0.67          0.850        0.000
  J10                  JUNCTION        0.67          0.850        0.000
  J11                  JUNCTION        0.67          0.850        0.000
  J12                  JUNCTION        0.67          0.850        0.000
  J14                  JUNCTION        0.67          0.850        0.000
  J15                  JUNCTION        0.67          0.850        0.000
  J16                  JUNCTION        0.67          0.850        0.000
  J17                  JUNCTION        0.67          0.850        0.000
  J18                  JUNCTION        0.67          0.850        0.000
  J20                  JUNCTION        0.67          0.850        0.000
  J21                  JUNCTION        0.67          0.850        0.000
  J22                  JUNCTION        0.67          0.850        0.000
  J23                  JUNCTION        0.67          0.850        0.000
  J24                  JUNCTION        0.67          0.850        0.000
  J26                  JUNCTION        0.67          0.850        0.000
  J27                  JUNCTION        0.67          0.850        0.000
  J29                  JUNCTION        0.67          0.850        0.000
  J30                  JUNCTION        0.67          0.850        0.000
  J31                  JUNCTION        0.67          0.850        0.000
  J33                  JUNCTION        0.67          0.850        0.000
  J32                  JUNCTION        0.67          0.850        0.000
  J28                  JUNCTION        0.67          0.850        0.000
  
  
  *********************
  Node Flooding Summary
  *********************
  
  Flooding refers to all water that overflows a node, whether it ponds or not.
  --------------------------------------------------------------------------
                                                             Total   Maximum
                                 Maximum   Time of Max       Flood    Ponded
                        Hours       Rate    Occurrence      Volume     Depth
  Node                 Flooded       CMS   days hr:min    10^6 ltr    Meters
  --------------------------------------------------------------------------
  J7                      0.67    54.200      0  00:30      85.938     0.000
  J13                     0.67     5.192      0  00:10       7.618     0.000
  J19                     0.67   238.738      0  00:10     342.006     0.000
  J25                     0.67    26.388      0  00:10      40.226     0.000
  J1                      0.67    20.658      0  00:10      30.097     0.000
  J2                      0.67    14.054      0  00:10      20.289     0.000
  J3                      0.67    19.695      0  00:05       8.522     0.000
  J4                      0.67    43.740      0  00:10      62.057     0.000
  J5                      0.67    35.673      0  00:10      50.295     0.000
  J6                      0.67    16.257      0  00:10      23.708     0.000
  J8                      0.67    25.014      0  00:05      36.443     0.000
  J9                      0.67    10.548      0  00:10      15.445     0.000
  J10                     0.67    16.089      0  00:10      23.267     0.000
  J11                     0.67    17.288      0  00:10      24.688     0.000
  J12                     0.67    18.052      0  00:10      25.710     0.000
  J14                     0.67    16.166      0  00:05      23.552     0.000
  J15                     0.67    22.671      0  00:10      33.124     0.000
  J16                     0.67    13.698      0  00:10      19.861     0.000
  J17                     0.67    13.745      0  00:05       6.860     0.000
  J18                     0.67    10.321      0  00:05       4.712     0.000
  J20                     0.67    45.044      0  00:10      65.833     0.000
  J21                     0.67    14.922      0  00:05      21.740     0.000
  J22                     0.67    29.730      0  00:10      43.522     0.000
  J23                     0.67    15.351      0  00:10      21.949     0.000
  J24                     0.67     3.285      0  00:05       4.387     0.000
  J26                     0.67    13.181      0  00:05      19.203     0.000
  J27                     0.67    11.921      0  00:10      17.064     0.000
  J29                     0.67    17.740      0  00:10      25.640     0.000
  J30                     0.67    22.847      0  00:05       8.433     0.000
  J31                     0.67    49.057      0  00:30      74.743     0.000
  J33                     0.67    18.656      0  00:10      27.222     0.000
  J32                     0.67     8.339      0  00:10      12.085     0.000
  J28                     0.67    13.954      0  00:10      19.988     0.000
  
  
  ***********************
  Outfall Loading Summary
  ***********************
  
  -----------------------------------------------------------
                         Flow       Avg       Max       Total
                         Freq      Flow      Flow      Volume
  Outfall Node           Pcnt       CMS       CMS    10^6 ltr
  -----------------------------------------------------------
  OF                   100.00     7.312     7.984      16.644
  -----------------------------------------------------------
  System               100.00     7.312     7.984      16.644
  
  
  ********************
  Link Flow Summary
  ********************
  
  -----------------------------------------------------------------------------
                                 Maximum  Time of Max   Maximum    Max/    Max/
                                  |Flow|   Occurrence   |Veloc|    Full    Full
  Link                 Type          CMS  days hr:min     m/sec    Flow   Depth
  -----------------------------------------------------------------------------
  P1                   PUMP        0.000     0  00:00                          
  C23                  CONDUIT     0.000     0  00:00      0.00    0.00    1.00
  C24                  CONDUIT     0.585     0  00:05      0.27    5.07    1.00
  C25                  CONDUIT     0.000     0  00:00      0.00    0.00    1.00
  C26                  CONDUIT     0.241     0  00:05      0.11    1.89    1.00
  C27                  CONDUIT     0.000     0  00:00      0.00    0.00    1.00
  C28                  CONDUIT     1.456     0  00:05      0.68   10.03    1.00
  C29                  CONDUIT     0.000     0  00:00      0.00    0.00    1.00
  C30                  CONDUIT     0.096     0  00:05      0.04    0.84    1.00
  C31                  CONDUIT     0.193     0  00:05      0.09    1.69    1.00
  C32                  CONDUIT     4.634     0  00:05      2.17   29.95    1.00
  C33                  CONDUIT    11.725     0  00:05      5.48   68.60    1.00
  C34                  CONDUIT     0.116     0  00:05      0.05    0.93    1.00
  C35                  CONDUIT     0.000     0  00:05      0.00    0.00    1.00
  C36                  CONDUIT     0.000     0  00:05      0.00    0.00    1.00
  C37                  CONDUIT     1.465     0  00:05      0.69   10.06    1.00
  C38                  CONDUIT     1.870     0  00:05      0.87   13.04    1.00
  C39                  CONDUIT     4.731     0  00:05      2.21   29.98    1.00
  C40                  CONDUIT     0.000     0  00:00      0.00    0.00    1.00
  C41                  CONDUIT     0.000     0  00:00      0.00    0.00    1.00
  C43                  CONDUIT     0.000     0  00:00      0.00    0.00    1.00
  C44                  CONDUIT     0.203     0  00:05      0.09    1.73    1.00
  C45                  CONDUIT    10.912     0  00:05      5.10   93.63    1.00
  C46                  CONDUIT    11.699     0  00:05      5.47   96.95    1.00
  C48                  CONDUIT     0.000     0  00:05      0.00    0.00    1.00
  C42                  CONDUIT     3.179     0  00:05      1.49   25.21    1.00
  C50                  CONDUIT     0.198     0  00:05      0.09    1.91    1.00
  C49                  CONDUIT     1.216     0  00:05      0.57   10.61    1.00
  C01                  CONDUIT     0.000     0  00:00      0.00    0.00    1.00
  C02                  CONDUIT     0.000     0  00:00      0.00    0.00    1.00
  C03                  CONDUIT     0.642     0  00:05      0.30    5.13    1.00
  C04                  CONDUIT     0.073     0  00:05      0.03    0.57    1.00
  C05                  CONDUIT     0.529     0  00:05      0.25    4.21    1.00
  C06                  CONDUIT     0.000     0  00:00      0.00    0.00    1.00
  C07                  CONDUIT     0.000     0  00:00      0.00    0.00    1.00
  C08                  CONDUIT     0.000     0  00:00      0.00    0.00    1.00
  C09                  CONDUIT     0.575     0  00:05      0.27    5.03    1.00
  C10                  CONDUIT     0.672     0  00:05      0.31    5.36    1.00
  C11                  CONDUIT     0.000     0  00:00      0.00    0.00    1.00
  C12                  CONDUIT     5.519     0  00:05      2.58   47.54    1.00
  C13                  CONDUIT     5.632     0  00:05      2.63   49.01    1.00
  C14                  CONDUIT     3.196     0  00:05      1.49   25.39    1.00
  C15                  CONDUIT     0.513     0  00:05      0.24    4.07    1.00
  C16                  CONDUIT     0.648     0  00:05      0.30    5.69    1.00
  C17                  CONDUIT     5.277     0  00:05      2.47   46.57    1.00
  C18                  CONDUIT     0.000     0  00:00      0.00    0.00    1.00
  C19                  CONDUIT     0.000     0  00:00      0.00    0.00    1.00
  C20                  CONDUIT     5.398     0  00:05      2.52   48.06    1.00
  C21                  CONDUIT     0.000     0  00:05      0.00    0.00    1.00
  C22                  CONDUIT     0.049     0  00:05      0.02    0.38    1.00
  C47                  CONDUIT     0.000     0  00:00      0.00    0.00    1.00
  Cout                 CONDUIT     7.984     0  00:05      3.85   63.04    0.93
  
  
  ***************************
  Flow Classification Summary
  ***************************
  
  -------------------------------------------------------------------------------------
                      Adjusted    ---------- Fraction of Time in Flow Class ---------- 
                       /Actual         Up    Down  Sub   Sup   Up    Down  Norm  Inlet 
  Conduit               Length    Dry  Dry   Dry   Crit  Crit  Crit  Crit  Ltd   Ctrl  
  -------------------------------------------------------------------------------------
  C23                     1.00   0.00  0.00  0.00  1.00  0.00  0.00  0.00  0.00  0.00
  C24                     1.00   0.00  0.00  0.00  1.00  0.00  0.00  0.00  0.00  0.00
  C25                     1.00   0.00  0.00  0.00  1.00  0.00  0.00  0.00  0.00  0.00
  C26                     1.00   0.00  0.00  0.00  1.00  0.00  0.00  0.00  0.00  0.00
  C27                     1.00   0.00  0.00  0.00  1.00  0.00  0.00  0.00  0.00  0.00
  C28                     1.00   0.00  0.00  0.00  1.00  0.00  0.00  0.00  0.00  0.00
  C29                     1.00   0.00  0.00  0.00  1.00  0.00  0.00  0.00  0.00  0.00
  C30                     1.00   0.00  0.00  0.00  1.00  0.00  0.00  0.00  0.00  0.00
  C31                     1.00   0.00  0.00  0.00  1.00  0.00  0.00  0.00  0.00  0.00
  C32                     1.00   0.00  0.00  0.00  1.00  0.00  0.00  0.00  0.00  0.00
  C33                     1.00   0.00  0.00  0.00  1.00  0.00  0.00  0.00  0.00  0.00
  C34                     1.00   0.00  0.00  0.00  1.00  0.00  0.00  0.00  0.00  0.00
  C35                     1.00   0.00  0.00  0.00  1.00  0.00  0.00  0.00  0.00  0.00
  C36                     1.00   0.00  0.00  0.00  1.00  0.00  0.00  0.00  0.00  0.00
  C37                     1.00   0.00  0.00  0.00  1.00  0.00  0.00  0.00  0.00  0.00
  C38                     1.00   0.00  0.00  0.00  1.00  0.00  0.00  0.00  0.00  0.00
  C39                     1.00   0.00  0.00  0.00  1.00  0.00  0.00  0.00  0.00  0.00
  C40                     1.00   0.00  0.00  0.00  1.00  0.00  0.00  0.00  0.00  0.00
  C41                     1.00   0.00  0.00  0.00  1.00  0.00  0.00  0.00  0.00  0.00
  C43                     1.00   0.00  0.00  0.00  1.00  0.00  0.00  0.00  0.00  0.00
  C44                     1.00   0.00  0.00  0.00  1.00  0.00  0.00  0.00  0.00  0.00
  C45                     1.00   0.00  0.00  0.00  1.00  0.00  0.00  0.00  0.00  0.00
  C46                     1.00   0.00  0.00  0.00  1.00  0.00  0.00  0.00  0.00  0.00
  C48                     1.00   0.00  0.00  0.00  1.00  0.00  0.00  0.00  0.00  0.00
  C42                     1.00   0.00  0.00  0.00  1.00  0.00  0.00  0.00  0.00  0.00
  C50                     1.00   0.00  0.00  0.00  1.00  0.00  0.00  0.00  0.00  0.00
  C49                     1.00   0.00  0.00  0.00  1.00  0.00  0.00  0.00  0.00  0.00
  C01                     1.00   0.00  0.00  0.00  1.00  0.00  0.00  0.00  0.00  0.00
  C02                     1.00   0.00  0.00  0.00  1.00  0.00  0.00  0.00  0.00  0.00
  C03                     1.00   0.00  0.00  0.00  1.00  0.00  0.00  0.00  0.00  0.00
  C04                     1.00   0.00  0.00  0.00  1.00  0.00  0.00  0.00  0.00  0.00
  C05                     1.00   0.00  0.00  0.00  1.00  0.00  0.00  0.00  0.00  0.00
  C06                     1.00   0.00  0.00  0.00  1.00  0.00  0.00  0.00  0.00  0.00
  C07                     1.00   0.00  0.00  0.00  1.00  0.00  0.00  0.00  0.00  0.00
  C08                     1.00   0.00  0.00  0.00  1.00  0.00  0.00  0.00  0.00  0.00
  C09                     1.00   0.00  0.00  0.00  1.00  0.00  0.00  0.00  0.00  0.00
  C10                     1.00   0.00  0.00  0.00  1.00  0.00  0.00  0.00  0.00  0.00
  C11                     1.00   0.00  0.00  0.00  1.00  0.00  0.00  0.00  0.00  0.00
  C12                     1.00   0.00  0.00  0.00  1.00  0.00  0.00  0.00  0.00  0.00
  C13                     1.00   0.00  0.00  0.00  1.00  0.00  0.00  0.00  0.00  0.00
  C14                     1.00   0.00  0.00  0.00  1.00  0.00  0.00  0.00  0.00  0.00
  C15                     1.00   0.00  0.00  0.00  1.00  0.00  0.00  0.00  0.00  0.00
  C16                     1.00   0.00  0.00  0.00  1.00  0.00  0.00  0.00  0.00  0.00
  C17                     1.00   0.00  0.00  0.00  1.00  0.00  0.00  0.00  0.00  0.00
  C18                     1.00   0.00  0.00  0.00  1.00  0.00  0.00  0.00  0.00  0.00
  C19                     1.00   0.00  0.00  0.00  1.00  0.00  0.00  0.00  0.00  0.00
  C20                     1.00   0.00  0.00  0.00  1.00  0.00  0.00  0.00  0.00  0.00
  C21                     1.00   0.00  0.00  0.00  1.00  0.00  0.00  0.00  0.00  0.00
  C22                     1.00   0.00  0.00  0.00  1.00  0.00  0.00  0.00  0.00  0.00
  C47                     1.00   0.00  0.00  0.00  1.00  0.00  0.00  0.00  0.00  0.00
  Cout                    1.00   0.00  0.00  0.00  1.00  0.00  0.00  0.00  0.00  0.00
  
  
  *************************
  Conduit Surcharge Summary
  *************************
  
  ----------------------------------------------------------------------------
                                                           Hours        Hours 
                         --------- Hours Full --------   Above Full   Capacity
  Conduit                Both Ends  Upstream  Dnstream   Normal Flow   Limited
  ----------------------------------------------------------------------------
  C23                         0.67      0.67      0.67      0.01         0.01
  C24                         0.67      0.67      0.67      0.67         0.01
  C25                         0.67      0.67      0.67      0.01         0.01
  C26                         0.67      0.67      0.67      0.49         0.01
  C27                         0.67      0.67      0.67      0.01         0.01
  C28                         0.67      0.67      0.67      0.67         0.01
  C29                         0.67      0.67      0.67      0.01         0.01
  C30                         0.67      0.67      0.67      0.01         0.01
  C31                         0.67      0.67      0.67      0.47         0.01
  C32                         0.67      0.67      0.67      0.67         0.01
  C33                         0.67      0.67      0.67      0.67         0.01
  C34                         0.67      0.67      0.67      0.01         0.01
  C35                         0.67      0.67      0.67      0.01         0.01
  C36                         0.67      0.67      0.67      0.01         0.01
  C37                         0.67      0.67      0.67      0.67         0.01
  C38                         0.67      0.67      0.67      0.67         0.01
  C39                         0.67      0.67      0.67      0.67         0.01
  C40                         0.67      0.67      0.67      0.01         0.01
  C41                         0.67      0.67      0.67      0.01         0.01
  C43                         0.67      0.67      0.67      0.01         0.01
  C44                         0.67      0.67      0.67      0.48         0.01
  C45                         0.67      0.67      0.67      0.67         0.01
  C46                         0.67      0.67      0.67      0.67         0.01
  C48                         0.67      0.67      0.67      0.01         0.01
  C42                         0.67      0.67      0.67      0.67         0.01
  C50                         0.67      0.67      0.67      0.59         0.01
  C49                         0.67      0.67      0.67      0.67         0.01
  C01                         0.67      0.67      0.67      0.01         0.01
  C02                         0.67      0.67      0.67      0.01         0.01
  C03                         0.67      0.67      0.67      0.67         0.01
  C04                         0.67      0.67      0.67      0.01         0.01
  C05                         0.67      0.67      0.67      0.67         0.01
  C06                         0.67      0.67      0.67      0.01         0.01
  C07                         0.67      0.67      0.67      0.01         0.01
  C08                         0.67      0.67      0.67      0.01         0.01
  C09                         0.67      0.67      0.67      0.67         0.01
  C10                         0.67      0.67      0.67      0.67         0.01
  C11                         0.67      0.67      0.67      0.01         0.01
  C12                         0.67      0.67      0.67      0.67         0.01
  C13                         0.67      0.67      0.67      0.67         0.01
  C14                         0.67      0.67      0.67      0.67         0.01
  C15                         0.67      0.67      0.67      0.67         0.01
  C16                         0.67      0.67      0.67      0.67         0.01
  C17                         0.67      0.67      0.67      0.67         0.01
  C18                         0.67      0.67      0.67      0.01         0.01
  C19                         0.67      0.67      0.67      0.01         0.01
  C20                         0.67      0.67      0.67      0.67         0.01
  C21                         0.67      0.67      0.67      0.01         0.01
  C22                         0.67      0.67      0.67      0.01         0.01
  C47                         0.67      0.67      0.67      0.01         0.01
  Cout                        0.01      0.67      0.01      0.67         0.01
  
  
  ***************
  Pumping Summary
  ***************
  
  ---------------------------------------------------------------------------------------------------------
                                                  Min       Avg       Max     Total     Power    % Time Off
                        Percent   Number of      Flow      Flow      Flow    Volume     Usage    Pump Curve
  Pump                 Utilized   Start-Ups       CMS       CMS       CMS  10^6 ltr     Kw-hr    Low   High
  ---------------------------------------------------------------------------------------------------------
  P1                       0.00           0      0.00      0.00      0.00     0.000      0.00    0.0    0.0
  

  Analysis begun on:  Mon Dec  2 16:53:03 2024
  Analysis ended on:  Mon Dec  2 16:53:03 2024
  Total elapsed time: < 1 sec