
  EPA STORM WATER MANAGEMENT MODEL - VERSION 5.2 (Build 5.2.4)
  PYSWMM TOOLKIT API - VERSION v1.0 (2023-11-27)
  ------------------------------------------------------------

  WARNING 04: minimum elevation drop used for Conduit C23
  WARNING 04: minimum elevation drop used for Conduit C24
  WARNING 04: minimum elevation drop used for Conduit C25
  WARNING 04: minimum elevation drop used for Conduit C26
  WARNING 04: minimum elevation drop used for Conduit C27
  WARNING 04: minimum elevation drop used for Conduit C28
  WARNING 04: minimum elevation drop used for Conduit C29
  WARNING 04: minimum elevation drop used for Conduit C30
  WARNING 04: minimum elevation drop used for Conduit C31
  WARNING 04: minimum elevation drop used for Conduit C32
  WARNING 04: minimum elevation drop used for Conduit C33
  WARNING 04: minimum elevation drop used for Conduit C34
  WARNING 04: minimum elevation drop used for Conduit C35
  WARNING 04: minimum elevation drop used for Conduit C36
  WARNING 04: minimum elevation drop used for Conduit C37
  WARNING 04: minimum elevation drop used for Conduit C38
  WARNING 04: minimum elevation drop used for Conduit C39
  WARNING 04: minimum elevation drop used for Conduit C40
  WARNING 04: minimum elevation drop used for Conduit C41
  WARNING 04: minimum elevation drop used for Conduit C43
  WARNING 04: minimum elevation drop used for Conduit C44
  WARNING 04: minimum elevation drop used for Conduit C45
  WARNING 04: minimum elevation drop used for Conduit C46
  WARNING 04: minimum elevation drop used for Conduit C48
  WARNING 04: minimum elevation drop used for Conduit C42
  WARNING 04: minimum elevation drop used for Conduit C50
  WARNING 04: minimum elevation drop used for Conduit C49
  WARNING 04: minimum elevation drop used for Conduit C01
  WARNING 04: minimum elevation drop used for Conduit C02
  WARNING 04: minimum elevation drop used for Conduit C03
  WARNING 04: minimum elevation drop used for Conduit C04
  WARNING 04: minimum elevation drop used for Conduit C05
  WARNING 04: minimum elevation drop used for Conduit C06
  WARNING 04: minimum elevation drop used for Conduit C07
  WARNING 04: minimum elevation drop used for Conduit C08
  WARNING 04: minimum elevation drop used for Conduit C09
  WARNING 04: minimum elevation drop used for Conduit C10
  WARNING 04: minimum elevation drop used for Conduit C11
  WARNING 04: minimum elevation drop used for Conduit C12
  WARNING 04: minimum elevation drop used for Conduit C13
  WARNING 04: minimum elevation drop used for Conduit C14
  WARNING 04: minimum elevation drop used for Conduit C15
  WARNING 04: minimum elevation drop used for Conduit C16
  WARNING 04: minimum elevation drop used for Conduit C17
  WARNING 04: minimum elevation drop used for Conduit C18
  WARNING 04: minimum elevation drop used for Conduit C19
  WARNING 04: minimum elevation drop used for Conduit C20
  WARNING 04: minimum elevation drop used for Conduit C21
  WARNING 04: minimum elevation drop used for Conduit C22
  WARNING 04: minimum elevation drop used for Conduit C47
  WARNING 04: minimum elevation drop used for Conduit Cout
  
  ****************
  Analysis Options
  ****************
  Flow Units ............... CMS
  Process Models:
    Rainfall/Runoff ........ YES
    RDII ................... NO
    Snowmelt ............... NO
    Groundwater ............ NO
    Flow Routing ........... YES
    Ponding Allowed ........ NO
    Water Quality .......... NO
  Infiltration Method ...... HORTON
  Flow Routing Method ...... DYNWAVE
  Surcharge Method ......... EXTRAN
  Starting Date ............ 09/02/2020 14:01:00
  Ending Date .............. 09/02/2020 15:41:00
  Antecedent Dry Days ...... 0.0
  Report Time Step ......... 00:10:00
  Wet Time Step ............ 00:05:00
  Dry Time Step ............ 01:00:00
  Routing Time Step ........ 300.00 sec
  Variable Time Step ....... YES
  Maximum Trials ........... 8
  Number of Threads ........ 1
  Head Tolerance ........... 0.001524 m
  
  
  *********************
  Rainfall File Summary
  *********************
  Station    First        Last         Recording   Periods    Periods    Periods
  ID         Date         Date         Frequency  w/Precip    Missing    Malfunc.
  -------------------------------------------------------------------------------
  10         09/02/2020   09/02/2020      10 min        11          0          0

  
  
  **************************        Volume         Depth
  Runoff Quantity Continuity     hectare-m            mm
  **************************     ---------       -------
  Total Precipitation ......       361.936      3619.500
  Evaporation Loss .........         0.000         0.000
  Infiltration Loss ........         0.000         0.000
  Surface Runoff ...........       345.870      3458.834
  Final Storage ............        18.148       181.485
  Continuity Error (%) .....        -0.575
  
  
  **************************        Volume        Volume
  Flow Routing Continuity        hectare-m      10^6 ltr
  **************************     ---------     ---------
  Dry Weather Inflow .......         0.000         0.000
  Wet Weather Inflow .......       338.564      3385.675
  Groundwater Inflow .......         0.000         0.000
  RDII Inflow ..............         0.000         0.000
  External Inflow ..........         0.000         0.000
  External Outflow .........         4.310        43.102
  Flooding Loss ............       330.073      3300.766
  Evaporation Loss .........         0.000         0.000
  Exfiltration Loss ........         0.000         0.000
  Initial Stored Volume ....         0.046         0.463
  Final Stored Volume ......         1.883        18.831
  Continuity Error (%) .....         0.692
  
  
  *************************
  Highest Continuity Errors
  *************************
  Node J30 (16.57%)
  Node J3 (10.25%)
  Node J17 (8.86%)
  Node J24 (5.16%)
  Node J18 (5.06%)
  
  
  ***************************
  Time-Step Critical Elements
  ***************************
  Link Cout (99.51%)
  
  
  ********************************
  Highest Flow Instability Indexes
  ********************************
  All links are stable.
  
  
  *********************************
  Most Frequent Nonconverging Nodes
  *********************************
  Convergence obtained at all time steps.
  
  
  *************************
  Routing Time Step Summary
  *************************
  Minimum Time Step           :     4.91 sec
  Average Time Step           :    14.60 sec
  Maximum Time Step           :   300.00 sec
  % of Time in Steady State   :     0.00
  Average Iterations per Step :     2.01
  % of Steps Not Converging   :     0.00
  Time Step Frequencies       :
     300.000 - 83.462 sec      :     0.24 %
     83.462 - 23.220 sec      :     0.00 %
     23.220 -  6.460 sec      :    99.51 %
      6.460 -  1.797 sec      :     0.24 %
      1.797 -  0.500 sec      :     0.00 %
  
  
  ***************************
  Subcatchment Runoff Summary
  ***************************
  
  ------------------------------------------------------------------------------------------------------------------------------
                            Total      Total      Total      Total     Imperv       Perv      Total       Total     Peak  Runoff
                           Precip      Runon       Evap      Infil     Runoff     Runoff     Runoff      Runoff   Runoff   Coeff
  Subcatchment                 mm         mm         mm         mm         mm         mm         mm    10^6 ltr      CMS
  ------------------------------------------------------------------------------------------------------------------------------
  S1                      3619.50       0.00       0.00       0.00      35.83    3583.67    3619.50      913.06   170.88   1.000
  S2                      3619.50       0.00       0.00       0.00      32.94    3585.93    3618.86       28.12     5.26   1.000
  S3                      3619.50       0.00       0.00       0.00      32.94    3586.56    3619.50        7.49     1.40   1.000
  S4                      3619.50       0.00       0.00       0.00      32.94    3586.56    3619.50        7.42     1.39   1.000
  S5                      3619.50       0.00       0.00       0.00      32.94    3586.56    3619.50       10.82     2.03   1.000
  S6                      3619.50       0.00       0.00       0.00      32.94    3586.56    3619.50       29.82     5.58   1.000
  S7                      3619.50       0.00       0.00       0.00      32.94    3586.56    3619.50        5.61     1.05   1.000
  S8                      3619.50       0.00       0.00       0.00      32.94    3586.56    3619.50       17.63     3.30   1.000
  S9                      3619.50       0.00       0.00       0.00      32.94    3586.56    3619.50       21.79     4.08   1.000
  S10                     3619.50       0.00       0.00       0.00       0.00    3586.56    3586.56        5.06     0.95   0.991
  S11                     3619.50       0.00       0.00       0.00      32.94    3541.57    3574.51       52.30     9.90   0.988
  S12                     3619.50       0.00       0.00       0.00      32.94    3586.56    3619.50       31.42     5.88   1.000
  S13                     3619.50       0.00       0.00       0.00       0.00    3586.56    3586.56       30.27     5.67   0.991
  S14                     3619.50       0.00       0.00       0.00      30.40    3589.10    3619.50       29.06     5.44   1.000
  S15                     3619.50       0.00       0.00       0.00      30.40    3589.10    3619.50       27.15     5.08   1.000
  S16                     3619.50       0.00       0.00       0.00      27.87    3584.38    3612.25       63.79    11.96   0.998
  S17                     3619.50       0.00       0.00       0.00      27.87    3469.71    3497.58      119.09    22.98   0.966
  S18                     3619.50       0.00       0.00       0.00      27.87    3591.60    3619.47        4.67     0.87   1.000
  S19                     3619.50       0.00       0.00       0.00      27.87       0.00      27.87        0.07     0.01   0.008
  S20                     3619.50       0.00       0.00       0.00      27.87    3591.58    3619.45        3.69     0.69   1.000
  S21                     3619.50       0.00       0.00       0.00      27.87    3568.80    3596.67       59.63    11.23   0.994
  S22                     3619.50       0.00       0.00       0.00      27.87    3591.60    3619.47        1.19     0.22   1.000
  S23                     3619.50       0.00       0.00       0.00      27.87    3591.63    3619.50        1.41     0.26   1.000
  S24                     3619.50       0.00       0.00       0.00      27.87    3591.63    3619.50        1.77     0.33   1.000
  S25                     3619.50       0.00       0.00       0.00      27.87    3591.63    3619.50        2.14     0.40   1.000
  S26                     3619.50       0.00       0.00       0.00      27.87    3591.63    3619.50        2.50     0.47   1.000
  S27                     3619.50       0.00       0.00       0.00      27.87    3591.48    3619.35       30.08     5.63   1.000
  S28                     3619.50       0.00       0.00       0.00      27.87    3571.76    3599.63       31.96     6.01   0.995
  S29                     3619.50       0.00       0.00       0.00      27.87    3591.62    3619.49        3.33     0.62   1.000
  S30                     3619.50       0.00       0.00       0.00      27.87    3432.84    3460.71      220.45    42.88   0.956
  S31                     3619.50       0.00       0.00       0.00      28.96    3590.54    3619.50       49.04     9.18   1.000
  S32                     3619.50       0.00       0.00       0.00      28.96    3590.54    3619.50       15.09     2.82   1.000
  S33                     3619.50       0.00       0.00       0.00      34.02    3585.48    3619.50       11.26     2.11   1.000
  S34                     3619.50       0.00       0.00       0.00      34.02    3585.48    3619.50       11.91     2.23   1.000
  S35                     3619.50       0.00       0.00       0.00      32.94    3586.56    3619.50       14.55     2.72   1.000
  S36                     3619.50       0.00       0.00       0.00      32.94    3586.56    3619.50        5.97     1.12   1.000
  S37                     3619.50       0.00       0.00       0.00      32.94    3586.56    3619.50       13.03     2.44   1.000
  S38                     3619.50       0.00       0.00       0.00      32.94    3586.56    3619.50        0.58     0.11   1.000
  S39                     3619.50       0.00       0.00       0.00      32.94    3586.56    3619.50       14.84     2.78   1.000
  S40                     3619.50       0.00       0.00       0.00      32.94    3586.56    3619.50        5.10     0.96   1.000
  S41                     3619.50       0.00       0.00       0.00      32.94    3586.56    3619.50        8.22     1.54   1.000
  S42                     3619.50       0.00       0.00       0.00      32.94    3586.56    3619.50       11.44     2.14   1.000
  S43                     3619.50       0.00       0.00       0.00      32.94    3586.56    3619.50       26.06     4.88   1.000
  S44                     3619.50       0.00       0.00       0.00      32.94    3586.56    3619.50       18.89     3.54   1.000
  S45                     3619.50       0.00       0.00       0.00      32.94    3586.56    3619.50        1.92     0.36   1.000
  S46                     3619.50       0.00       0.00       0.00      32.94    3586.56    3619.50       17.52     3.28   1.000
  S47                     3619.50       0.00       0.00       0.00      32.94    3586.56    3619.50       35.40     6.63   1.000
  S48                     3619.50       0.00       0.00       0.00      32.94    3586.56    3619.50       40.90     7.65   1.000
  S49                     3619.50       0.00       0.00       0.00      32.94    3586.56    3619.50       24.87     4.65   1.000
  S50                     3619.50       0.00       0.00       0.00      32.94    3586.56    3619.50       20.49     3.83   1.000
  S51                     3619.50       0.00       0.00       0.00      32.94    3586.56    3619.50       12.09     2.26   1.000
  S52                     3619.50       0.00       0.00       0.00      32.94    3586.56    3619.50       32.03     6.00   1.000
  S53                     3619.50       0.00       0.00       0.00      32.94    3567.89    3600.83       43.86     8.25   0.995
  S54                     3619.50       0.00       0.00       0.00      32.94    3585.13    3618.07       16.53     3.10   1.000
  S55                     3619.50       0.00       0.00       0.00      32.94    3586.56    3619.50        1.38     0.26   1.000
  S56                     3619.50       0.00       0.00       0.00      32.94    3586.57    3619.50        1.38     0.26   1.000
  S57                     3619.50       0.00       0.00       0.00      32.94    3586.56    3619.50       18.71     3.50   1.000
  S58                     3619.50       0.00       0.00       0.00      32.94    3586.56    3619.50       24.03     4.50   1.000
  S59                     3619.50       0.00       0.00       0.00      32.94    3586.56    3619.50       23.35     4.37   1.000
  S60                     3619.50       0.00       0.00       0.00      27.87    3591.25    3619.12       14.22     2.66   1.000
  S61                     3619.50       0.00       0.00       0.00      27.87       0.00      27.87        0.09     0.02   0.008
  S62                     3619.50       0.00       0.00       0.00      27.87    3406.41    3434.28      184.04    36.01   0.949
  S63                     3619.50       0.00       0.00       0.00      27.87    3591.63    3619.50       34.02     6.37   1.000
  S64                     3619.50       0.00       0.00       0.00      27.87    3591.63    3619.50       92.12    17.24   1.000
  S65                     3619.50       0.00       0.00       0.00      27.87    3591.63    3619.50       14.70     2.75   1.000
  S66                     3619.50       0.00       0.00       0.00      27.87    3591.63    3619.50       23.71     4.44   1.000
  S67                     3619.50       0.00       0.00       0.00      27.87    3591.63    3619.50       44.30     8.29   1.000
  S68                     3619.50       0.00       0.00       0.00      27.87    3591.63    3619.50       51.94     9.72   1.000
  S69                     3619.50       0.00       0.00       0.00      27.87       0.00      27.87        0.69     0.13   0.008
  S70                     3619.50       0.00       0.00       0.00      27.87    3567.42    3595.29       94.09    17.72   0.993
  S71                     3619.50       0.00       0.00       0.00      32.94    3586.56    3619.50       53.24     9.96   1.000
  S72                     3619.50       0.00       0.00       0.00      27.87    3603.56    3631.43       18.01     3.36   1.003
  S73                     3619.50       0.00       0.00       0.00      27.87    3591.63    3619.50       75.87    14.20   1.000
  S74                     3619.50       0.00       0.00       0.00      27.87       0.00      27.87        0.18     0.03   0.008
  S75                     3619.50       0.00       0.00       0.00      27.87    3591.63    3619.50        2.43     0.45   1.000
  S76                     3619.50       0.00       0.00       0.00      27.87    3591.63    3619.50       47.81     8.95   1.000
  S77                     3619.50       0.00       0.00       0.00      27.87    3591.63    3619.50       38.69     7.24   1.000
  S78                     3619.50       0.00       0.00       0.00      27.87    3591.63    3619.50       28.05     5.25   1.000
  S79                     3619.50       0.00       0.00       0.00      32.94    3586.56    3619.50       24.58     4.60   1.000
  S80                     3619.50       0.00       0.00       0.00      27.87    3591.59    3619.46        9.99     1.87   1.000
  S81                     3619.50       0.00       0.00       0.00      27.87    3591.63    3619.50       40.94     7.66   1.000
  S82                     3619.50       0.00       0.00       0.00      27.87    3591.63    3619.50       39.96     7.48   1.000
  S83                     3619.50       0.00       0.00       0.00      27.87    3591.63    3619.50       25.70     4.81   1.000
  S84                     3619.50       0.00       0.00       0.00      32.94    3586.56    3619.50       16.79     3.14   1.000
  S85                     3619.50       0.00       0.00       0.00      32.94    3573.84    3606.77       44.58     8.37   0.996
  S86                     3619.50       0.00       0.00       0.00       0.00    3586.56    3586.56       41.50     7.77   0.991
  S87                     3619.50       0.00       0.00       0.00      32.94    3586.56    3619.50       44.95     8.41   1.000
  S88                     3619.50       0.00       0.00       0.00      32.94    3586.56    3619.50        8.11     1.52   1.000
  S89                     3619.50       0.00       0.00       0.00      32.94    3586.56    3619.50       36.59     6.85   1.000
  S90                     3619.50       0.00       0.00       0.00       0.00    3586.56    3586.56       17.61     3.30   0.991
  S91                     3619.50       0.00       0.00       0.00      32.94    3586.56    3619.50        5.97     1.12   1.000
  
  
  ******************
  Node Depth Summary
  ******************
  
  ---------------------------------------------------------------------------------
                                 Average  Maximum  Maximum  Time of Max    Reported
                                   Depth    Depth      HGL   Occurrence   Max Depth
  Node                 Type       Meters   Meters   Meters  days hr:min      Meters
  ---------------------------------------------------------------------------------
  J7                   JUNCTION     2.49     2.50     2.50     0  00:05        2.50
  J13                  JUNCTION     2.49     2.50     2.50     0  00:05        2.50
  J19                  JUNCTION     2.49     2.50     2.50     0  00:05        2.50
  J25                  JUNCTION     2.49     2.50     2.50     0  00:05        2.50
  J1                   JUNCTION     2.49     2.50     2.50     0  00:05        2.50
  J2                   JUNCTION     2.49     2.50     2.50     0  00:05        2.50
  J3                   JUNCTION     2.49     2.50     2.50     0  00:05        2.50
  J4                   JUNCTION     2.49     2.50     2.50     0  00:05        2.50
  J5                   JUNCTION     2.49     2.50     2.50     0  00:05        2.50
  J6                   JUNCTION     2.49     2.50     2.50     0  00:05        2.50
  J8                   JUNCTION     2.49     2.50     2.50     0  00:05        2.50
  J9                   JUNCTION     2.49     2.50     2.50     0  00:05        2.50
  J10                  JUNCTION     2.49     2.50     2.50     0  00:05        2.50
  J11                  JUNCTION     2.49     2.50     2.50     0  00:05        2.50
  J12                  JUNCTION     2.49     2.50     2.50     0  00:05        2.50
  J14                  JUNCTION     2.49     2.50     2.50     0  00:05        2.50
  J15                  JUNCTION     2.49     2.50     2.50     0  00:05        2.50
  J16                  JUNCTION     2.49     2.50     2.50     0  00:05        2.50
  J17                  JUNCTION     2.49     2.50     2.50     0  00:05        2.50
  J18                  JUNCTION     2.49     2.50     2.50     0  00:05        2.50
  J20                  JUNCTION     2.49     2.50     2.50     0  00:05        2.50
  J21                  JUNCTION     2.49     2.50     2.50     0  00:05        2.50
  J22                  JUNCTION     2.49     2.50     2.50     0  00:05        2.50
  J23                  JUNCTION     2.49     2.50     2.50     0  00:05        2.50
  J24                  JUNCTION     2.49     2.50     2.50     0  00:05        2.50
  J26                  JUNCTION     2.49     2.50     2.50     0  00:05        2.50
  J27                  JUNCTION     2.49     2.50     2.50     0  00:05        2.50
  J29                  JUNCTION     2.49     2.50     2.50     0  00:05        2.50
  J30                  JUNCTION     2.49     2.50     2.50     0  00:05        2.50
  J31                  JUNCTION     2.49     2.50     2.50     0  00:05        2.50
  J33                  JUNCTION     2.49     2.50     2.50     0  00:05        2.50
  J32                  JUNCTION     2.49     2.50     2.50     0  00:05        2.50
  J28                  JUNCTION     2.49     2.50     2.50     0  00:05        2.50
  OF                   OUTFALL      1.37     1.41     1.41     0  00:05        1.37
  
  
  *******************
  Node Inflow Summary
  *******************
  
  -------------------------------------------------------------------------------------------------
                                  Maximum  Maximum                  Lateral       Total        Flow
                                  Lateral    Total  Time of Max      Inflow      Inflow     Balance
                                   Inflow   Inflow   Occurrence      Volume      Volume       Error
  Node                 Type           CMS      CMS  days hr:min    10^6 ltr    10^6 ltr     Percent
  -------------------------------------------------------------------------------------------------
  J7                   JUNCTION    47.235   47.235     0  00:40         238         238       0.556
  J13                  JUNCTION     3.865    3.865     0  00:40        20.3        20.3       1.358
  J19                  JUNCTION   183.148  183.148     0  00:40         958         958       1.326
  J25                  JUNCTION    22.977   23.136     0  00:40         116         118       0.730
  J1                   JUNCTION    15.374   15.374     0  00:40        80.4        80.4       1.388
  J2                   JUNCTION    11.550   11.621     0  00:35        60.4        60.8       1.009
  J3                   JUNCTION     0.515   13.784     0  00:05        2.69        9.64      11.420
  J4                   JUNCTION    33.444   33.758     0  00:35         175         177       1.170
  J5                   JUNCTION    27.652   27.652     0  00:35         145         145       0.749
  J6                   JUNCTION    12.098   12.098     0  00:35        63.3        63.3       1.359
  J8                   JUNCTION    18.615   18.615     0  00:35        97.4        97.4       1.397
  J9                   JUNCTION     8.372    8.372     0  00:40        43.6        43.6       0.992
  J10                  JUNCTION    12.491   12.491     0  00:35        65.4        65.4       1.190
  J11                  JUNCTION    13.420   13.712     0  00:35        70.2        71.9       1.164
  J12                  JUNCTION    14.198   14.447     0  00:35        74.3        75.7       1.174
  J14                  JUNCTION    12.031   12.031     0  00:35          63          63       1.397
  J15                  JUNCTION    17.219   17.219     0  00:40        89.9        89.9       1.256
  J16                  JUNCTION     9.965   12.002     0  00:05        52.1        55.7       1.249
  J17                  JUNCTION     0.130    8.686     0  00:05       0.678        7.02       9.722
  J18                  JUNCTION     0.454    4.116     0  00:05        2.38        5.51       5.333
  J20                  JUNCTION    33.653   33.653     0  00:40         175         175       1.312
  J21                  JUNCTION    11.105   11.105     0  00:40        58.1        58.1       1.397
  J22                  JUNCTION    22.805   22.805     0  00:40         119         119       1.152
  J23                  JUNCTION    11.963   12.133     0  00:35        62.5        63.7       1.020
  J24                  JUNCTION     1.577    8.495     0  00:05        8.25        11.9       5.440
  J26                  JUNCTION     9.809    9.809     0  00:40        51.3        51.3       1.397
  J27                  JUNCTION     8.603   10.239     0  00:05          45        47.6       1.302
  J29                  JUNCTION    14.110   14.309     0  00:35        73.8          75       1.195
  J30                  JUNCTION     0.000   18.201     0  00:05           0        7.85      19.863
  J31                  JUNCTION    42.884   43.041     0  00:40         215         216       0.496
  J33                  JUNCTION    13.884   13.884     0  00:40        72.6        72.6       1.396
  J32                  JUNCTION     6.334    6.334     0  00:35        33.1        33.1       1.310
  J28                  JUNCTION    10.127   13.237     0  00:05          53        56.2       1.174
  OF                   OUTFALL      0.000    7.968     0  00:05           0        43.1       0.000
  
  
  **********************
  Node Surcharge Summary
  **********************
  
  Surcharging occurs when water rises above the top of the highest conduit.
  ---------------------------------------------------------------------
                                               Max. Height   Min. Depth
                                   Hours       Above Crown    Below Rim
  Node                 Type      Surcharged         Meters       Meters
  ---------------------------------------------------------------------
  J7                   JUNCTION        1.67          0.850        0.000
  J13                  JUNCTION        1.67          0.850        0.000
  J19                  JUNCTION        1.67          0.850        0.000
  J25                  JUNCTION        1.67          0.850        0.000
  J1                   JUNCTION        1.67          0.850        0.000
  J2                   JUNCTION        1.67          0.850        0.000
  J3                   JUNCTION        1.67          0.850        0.000
  J4                   JUNCTION        1.67          0.850        0.000
  J5                   JUNCTION        1.67          0.850        0.000
  J6                   JUNCTION        1.67          0.850        0.000
  J8                   JUNCTION        1.67          0.850        0.000
  J9                   JUNCTION        1.67          0.850        0.000
  J10                  JUNCTION        1.67          0.850        0.000
  J11                  JUNCTION        1.67          0.850        0.000
  J12                  JUNCTION        1.67          0.850        0.000
  J14                  JUNCTION        1.67          0.850        0.000
  J15                  JUNCTION        1.67          0.850        0.000
  J16                  JUNCTION        1.67          0.850        0.000
  J17                  JUNCTION        1.67          0.850        0.000
  J18                  JUNCTION        1.67          0.850        0.000
  J20                  JUNCTION        1.67          0.850        0.000
  J21                  JUNCTION        1.67          0.850        0.000
  J22                  JUNCTION        1.67          0.850        0.000
  J23                  JUNCTION        1.67          0.850        0.000
  J24                  JUNCTION        1.67          0.850        0.000
  J26                  JUNCTION        1.67          0.850        0.000
  J27                  JUNCTION        1.67          0.850        0.000
  J29                  JUNCTION        1.67          0.850        0.000
  J30                  JUNCTION        1.67          0.850        0.000
  J31                  JUNCTION        1.67          0.850        0.000
  J33                  JUNCTION        1.67          0.850        0.000
  J32                  JUNCTION        1.67          0.850        0.000
  J28                  JUNCTION        1.67          0.850        0.000
  
  
  *********************
  Node Flooding Summary
  *********************
  
  Flooding refers to all water that overflows a node, whether it ponds or not.
  --------------------------------------------------------------------------
                                                             Total   Maximum
                                 Maximum   Time of Max       Flood    Ponded
                        Hours       Rate    Occurrence      Volume     Depth
  Node                 Flooded       CMS   days hr:min    10^6 ltr    Meters
  --------------------------------------------------------------------------
  J7                      1.67    47.043      0  00:40     235.189     0.000
  J13                     1.67     3.865      0  00:40      20.282     0.000
  J19                     1.67   175.797      0  00:40     915.114     0.000
  J25                     1.67    22.842      0  00:40     115.504     0.000
  J1                      1.67    15.306      0  00:40      80.067     0.000
  J2                      1.67    11.279      0  00:40      57.788     0.000
  J3                      1.67    12.893      0  00:05       9.641     0.000
  J4                      1.67    33.486      0  00:35     173.855     0.000
  J5                      1.67    27.036      0  00:40     137.974     0.000
  J6                      1.67    11.979      0  00:40      62.572     0.000
  J8                      1.67    18.615      0  00:35      97.411     0.000
  J9                      1.67     8.200      0  00:40      42.036     0.000
  J10                     1.67    12.064      0  00:40      62.406     0.000
  J11                     1.67    13.398      0  00:40      69.439     0.000
  J12                     1.67    14.249      0  00:40      73.825     0.000
  J14                     1.67    12.031      0  00:35      62.955     0.000
  J15                     1.67    17.060      0  00:40      88.648     0.000
  J16                     1.67    10.286      0  00:35      53.667     0.000
  J17                     1.67     8.341      0  00:05       7.025     0.000
  J18                     1.67     3.744      0  00:05       4.860     0.000
  J20                     1.67    33.652      0  00:40     175.440     0.000
  J21                     1.67    11.105      0  00:40      58.110     0.000
  J22                     1.67    22.491      0  00:40     116.288     0.000
  J23                     1.67    11.786      0  00:40      60.623     0.000
  J24                     1.67     7.936      0  00:05      11.930     0.000
  J26                     1.67     9.809      0  00:40      51.328     0.000
  J27                     1.67     8.764      0  00:35      45.804     0.000
  J29                     1.67    13.972      0  00:40      72.354     0.000
  J30                     1.67    16.412      0  00:05       7.851     0.000
  J31                     1.67    42.849      0  00:40     213.816     0.000
  J33                     1.67    13.884      0  00:40      72.646     0.000
  J32                     1.67     6.207      0  00:40      32.336     0.000
  J28                     1.67    10.310      0  00:35      53.772     0.000
  
  
  ***********************
  Outfall Loading Summary
  ***********************
  
  -----------------------------------------------------------
                         Flow       Avg       Max       Total
                         Freq      Flow      Flow      Volume
  Outfall Node           Pcnt       CMS       CMS    10^6 ltr
  -----------------------------------------------------------
  OF                   100.00     7.336     7.968      43.102
  -----------------------------------------------------------
  System               100.00     7.336     7.968      43.102
  
  
  ********************
  Link Flow Summary
  ********************
  
  -----------------------------------------------------------------------------
                                 Maximum  Time of Max   Maximum    Max/    Max/
                                  |Flow|   Occurrence   |Veloc|    Full    Full
  Link                 Type          CMS  days hr:min     m/sec    Flow   Depth
  -----------------------------------------------------------------------------
  P1                   PUMP        0.000     0  00:00                          
  C23                  CONDUIT     0.000     0  00:00      0.00    0.00    1.00
  C24                  CONDUIT     0.853     0  00:05      0.40    7.39    1.00
  C25                  CONDUIT     0.000     0  00:00      0.00    0.00    1.00
  C26                  CONDUIT     0.480     0  00:05      0.22    3.76    1.00
  C27                  CONDUIT     0.000     0  00:00      0.00    0.00    1.00
  C28                  CONDUIT     1.876     0  00:05      0.88   12.93    1.00
  C29                  CONDUIT     0.105     0  00:05      0.05    0.74    1.00
  C30                  CONDUIT     0.501     0  00:05      0.23    4.40    1.00
  C31                  CONDUIT     0.398     0  00:05      0.19    3.48    1.00
  C32                  CONDUIT     4.839     0  00:05      2.26   31.27    1.00
  C33                  CONDUIT     6.154     0  00:05      2.88   36.01    1.00
  C34                  CONDUIT     0.605     0  00:05      0.28    4.81    1.00
  C35                  CONDUIT     0.000     0  00:05      0.00    0.00    1.00
  C36                  CONDUIT     0.324     0  00:05      0.15    3.05    1.00
  C37                  CONDUIT     1.866     0  00:05      0.87   12.81    1.00
  C38                  CONDUIT     1.392     0  00:05      0.65    9.70    1.00
  C39                  CONDUIT     2.308     0  00:05      1.08   14.63    1.00
  C40                  CONDUIT     0.000     0  00:00      0.00    0.00    1.00
  C41                  CONDUIT     0.000     0  00:00      0.00    0.00    1.00
  C43                  CONDUIT     0.000     0  00:00      0.00    0.00    1.00
  C44                  CONDUIT     0.078     0  00:05      0.04    0.67    1.00
  C45                  CONDUIT    10.912     0  00:05      5.10   93.63    1.00
  C46                  CONDUIT     5.774     0  00:05      2.70   47.84    1.00
  C48                  CONDUIT     0.000     0  00:05      0.00    0.00    1.00
  C42                  CONDUIT     1.515     0  00:05      0.71   12.01    1.00
  C50                  CONDUIT     0.390     0  00:05      0.18    3.77    1.00
  C49                  CONDUIT     0.807     0  00:05      0.38    7.04    1.00
  C01                  CONDUIT     0.000     0  00:00      0.00    0.00    1.00
  C02                  CONDUIT     0.000     0  00:00      0.00    0.00    1.00
  C03                  CONDUIT     1.029     0  00:05      0.48    8.21    1.00
  C04                  CONDUIT     1.008     0  00:05      0.47    7.93    1.00
  C05                  CONDUIT     0.418     0  00:05      0.20    3.33    1.00
  C06                  CONDUIT     0.000     0  00:00      0.00    0.00    1.00
  C07                  CONDUIT     0.000     0  00:00      0.00    0.00    1.00
  C08                  CONDUIT     0.000     0  00:00      0.00    0.00    1.00
  C09                  CONDUIT     0.839     0  00:05      0.39    7.34    1.00
  C10                  CONDUIT     0.969     0  00:05      0.45    7.73    1.00
  C11                  CONDUIT     0.000     0  00:00      0.00    0.00    1.00
  C12                  CONDUIT     2.611     0  00:05      1.22   22.50    1.00
  C13                  CONDUIT     1.067     0  00:05      0.50    9.28    1.00
  C14                  CONDUIT     3.118     0  00:05      1.46   24.77    1.00
  C15                  CONDUIT     0.252     0  00:05      0.12    2.00    1.00
  C16                  CONDUIT     6.598     0  00:05      3.09   57.92    1.00
  C17                  CONDUIT     2.583     0  00:05      1.21   22.80    1.00
  C18                  CONDUIT     0.000     0  00:00      0.00    0.00    1.00
  C19                  CONDUIT     0.000     0  00:00      0.00    0.00    1.00
  C20                  CONDUIT     2.624     0  00:05      1.23   23.36    1.00
  C21                  CONDUIT     0.000     0  00:05      0.00    0.00    1.00
  C22                  CONDUIT     0.254     0  00:05      0.12    2.01    1.00
  C47                  CONDUIT     0.925     0  00:05      0.43    9.51    1.00
  Cout                 CONDUIT     7.968     0  00:05      3.85   62.92    0.93
  
  
  ***************************
  Flow Classification Summary
  ***************************
  
  -------------------------------------------------------------------------------------
                      Adjusted    ---------- Fraction of Time in Flow Class ---------- 
                       /Actual         Up    Down  Sub   Sup   Up    Down  Norm  Inlet 
  Conduit               Length    Dry  Dry   Dry   Crit  Crit  Crit  Crit  Ltd   Ctrl  
  -------------------------------------------------------------------------------------
  C23                     1.00   0.00  0.00  0.00  1.00  0.00  0.00  0.00  0.00  0.00
  C24                     1.00   0.00  0.00  0.00  1.00  0.00  0.00  0.00  0.00  0.00
  C25                     1.00   0.00  0.00  0.00  1.00  0.00  0.00  0.00  0.00  0.00
  C26                     1.00   0.00  0.00  0.00  1.00  0.00  0.00  0.00  0.00  0.00
  C27                     1.00   0.00  0.00  0.00  1.00  0.00  0.00  0.00  0.00  0.00
  C28                     1.00   0.00  0.00  0.00  1.00  0.00  0.00  0.00  0.00  0.00
  C29                     1.00   0.00  0.00  0.00  1.00  0.00  0.00  0.00  0.00  0.00
  C30                     1.00   0.00  0.00  0.00  1.00  0.00  0.00  0.00  0.00  0.00
  C31                     1.00   0.00  0.00  0.00  1.00  0.00  0.00  0.00  0.00  0.00
  C32                     1.00   0.00  0.00  0.00  1.00  0.00  0.00  0.00  0.00  0.00
  C33                     1.00   0.00  0.00  0.00  1.00  0.00  0.00  0.00  0.00  0.00
  C34                     1.00   0.00  0.00  0.00  1.00  0.00  0.00  0.00  0.00  0.00
  C35                     1.00   0.00  0.00  0.00  1.00  0.00  0.00  0.00  0.00  0.00
  C36                     1.00   0.00  0.00  0.00  1.00  0.00  0.00  0.00  0.00  0.00
  C37                     1.00   0.00  0.00  0.00  1.00  0.00  0.00  0.00  0.00  0.00
  C38                     1.00   0.00  0.00  0.00  1.00  0.00  0.00  0.00  0.00  0.00
  C39                     1.00   0.00  0.00  0.00  1.00  0.00  0.00  0.00  0.00  0.00
  C40                     1.00   0.00  0.00  0.00  1.00  0.00  0.00  0.00  0.00  0.00
  C41                     1.00   0.00  0.00  0.00  1.00  0.00  0.00  0.00  0.00  0.00
  C43                     1.00   0.00  0.00  0.00  1.00  0.00  0.00  0.00  0.00  0.00
  C44                     1.00   0.00  0.00  0.00  1.00  0.00  0.00  0.00  0.00  0.00
  C45                     1.00   0.00  0.00  0.00  1.00  0.00  0.00  0.00  0.00  0.00
  C46                     1.00   0.00  0.00  0.00  1.00  0.00  0.00  0.00  0.00  0.00
  C48                     1.00   0.00  0.00  0.00  1.00  0.00  0.00  0.00  0.00  0.00
  C42                     1.00   0.00  0.00  0.00  1.00  0.00  0.00  0.00  0.00  0.00
  C50                     1.00   0.00  0.00  0.00  1.00  0.00  0.00  0.00  0.00  0.00
  C49                     1.00   0.00  0.00  0.00  1.00  0.00  0.00  0.00  0.00  0.00
  C01                     1.00   0.00  0.00  0.00  1.00  0.00  0.00  0.00  0.00  0.00
  C02                     1.00   0.00  0.00  0.00  1.00  0.00  0.00  0.00  0.00  0.00
  C03                     1.00   0.00  0.00  0.00  1.00  0.00  0.00  0.00  0.00  0.00
  C04                     1.00   0.00  0.00  0.00  1.00  0.00  0.00  0.00  0.00  0.00
  C05                     1.00   0.00  0.00  0.00  1.00  0.00  0.00  0.00  0.00  0.00
  C06                     1.00   0.00  0.00  0.00  1.00  0.00  0.00  0.00  0.00  0.00
  C07                     1.00   0.00  0.00  0.00  1.00  0.00  0.00  0.00  0.00  0.00
  C08                     1.00   0.00  0.00  0.00  1.00  0.00  0.00  0.00  0.00  0.00
  C09                     1.00   0.00  0.00  0.00  1.00  0.00  0.00  0.00  0.00  0.00
  C10                     1.00   0.00  0.00  0.00  1.00  0.00  0.00  0.00  0.00  0.00
  C11                     1.00   0.00  0.00  0.00  1.00  0.00  0.00  0.00  0.00  0.00
  C12                     1.00   0.00  0.00  0.00  1.00  0.00  0.00  0.00  0.00  0.00
  C13                     1.00   0.00  0.00  0.00  1.00  0.00  0.00  0.00  0.00  0.00
  C14                     1.00   0.00  0.00  0.00  1.00  0.00  0.00  0.00  0.00  0.00
  C15                     1.00   0.00  0.00  0.00  1.00  0.00  0.00  0.00  0.00  0.00
  C16                     1.00   0.00  0.00  0.00  1.00  0.00  0.00  0.00  0.00  0.00
  C17                     1.00   0.00  0.00  0.00  1.00  0.00  0.00  0.00  0.00  0.00
  C18                     1.00   0.00  0.00  0.00  1.00  0.00  0.00  0.00  0.00  0.00
  C19                     1.00   0.00  0.00  0.00  1.00  0.00  0.00  0.00  0.00  0.00
  C20                     1.00   0.00  0.00  0.00  1.00  0.00  0.00  0.00  0.00  0.00
  C21                     1.00   0.00  0.00  0.00  1.00  0.00  0.00  0.00  0.00  0.00
  C22                     1.00   0.00  0.00  0.00  1.00  0.00  0.00  0.00  0.00  0.00
  C47                     1.00   0.00  0.00  0.00  1.00  0.00  0.00  0.00  0.00  0.00
  Cout                    1.00   0.00  0.00  0.00  1.00  0.00  0.00  0.00  0.00  0.00
  
  
  *************************
  Conduit Surcharge Summary
  *************************
  
  ----------------------------------------------------------------------------
                                                           Hours        Hours 
                         --------- Hours Full --------   Above Full   Capacity
  Conduit                Both Ends  Upstream  Dnstream   Normal Flow   Limited
  ----------------------------------------------------------------------------
  C23                         1.67      1.67      1.67      0.01         0.01
  C24                         1.67      1.67      1.67      0.91         0.01
  C25                         1.67      1.67      1.67      0.01         0.01
  C26                         1.67      1.67      1.67      0.71         0.01
  C27                         1.67      1.67      1.67      0.01         0.01
  C28                         1.67      1.67      1.67      0.78         0.01
  C29                         1.67      1.67      1.67      0.01         0.01
  C30                         1.67      1.67      1.67      0.83         0.01
  C31                         1.67      1.67      1.67      0.77         0.01
  C32                         1.67      1.67      1.67      0.78         0.01
  C33                         1.67      1.67      1.67      0.71         0.01
  C34                         1.67      1.67      1.67      0.78         0.01
  C35                         1.67      1.67      1.67      0.01         0.01
  C36                         1.67      1.67      1.67      0.78         0.01
  C37                         1.67      1.67      1.67      0.78         0.01
  C38                         1.67      1.67      1.67      0.77         0.01
  C39                         1.67      1.67      1.67      0.74         0.01
  C40                         1.67      1.67      1.67      0.01         0.01
  C41                         1.67      1.67      1.67      0.01         0.01
  C43                         1.67      1.67      1.67      0.01         0.01
  C44                         1.67      1.67      1.67      0.01         0.01
  C45                         1.67      1.67      1.67      1.02         0.01
  C46                         1.67      1.67      1.67      0.98         0.01
  C48                         1.67      1.67      1.67      0.01         0.01
  C42                         1.67      1.67      1.67      0.88         0.01
  C50                         1.67      1.67      1.67      0.86         0.01
  C49                         1.67      1.67      1.67      0.91         0.01
  C01                         1.67      1.67      1.67      0.01         0.01
  C02                         1.67      1.67      1.67      0.01         0.01
  C03                         1.67      1.67      1.67      0.86         0.01
  C04                         1.67      1.67      1.67      0.84         0.01
  C05                         1.67      1.67      1.67      0.70         0.01
  C06                         1.67      1.67      1.67      0.01         0.01
  C07                         1.67      1.67      1.67      0.01         0.01
  C08                         1.67      1.67      1.67      0.01         0.01
  C09                         1.67      1.67      1.67      0.92         0.01
  C10                         1.67      1.67      1.67      0.85         0.01
  C11                         1.67      1.67      1.67      0.01         0.01
  C12                         1.67      1.67      1.67      0.99         0.01
  C13                         1.67      1.67      1.67      0.94         0.01
  C14                         1.67      1.67      1.67      0.93         0.01
  C15                         1.67      1.67      1.67      0.52         0.01
  C16                         1.67      1.67      1.67      1.04         0.01
  C17                         1.67      1.67      1.67      1.02         0.01
  C18                         1.67      1.67      1.67      0.01         0.01
  C19                         1.67      1.67      1.67      0.01         0.01
  C20                         1.67      1.67      1.67      1.02         0.01
  C21                         1.67      1.67      1.67      0.01         0.01
  C22                         1.67      1.67      1.67      0.52         0.01
  C47                         1.67      1.67      1.67      1.10         0.01
  Cout                        0.01      1.67      0.01      1.67         0.01
  
  
  ***************
  Pumping Summary
  ***************
  
  ---------------------------------------------------------------------------------------------------------
                                                  Min       Avg       Max     Total     Power    % Time Off
                        Percent   Number of      Flow      Flow      Flow    Volume     Usage    Pump Curve
  Pump                 Utilized   Start-Ups       CMS       CMS       CMS  10^6 ltr     Kw-hr    Low   High
  ---------------------------------------------------------------------------------------------------------
  P1                       0.00           0      0.00      0.00      0.00     0.000      0.00    0.0    0.0
  

  Analysis begun on:  Thu Oct 31 20:14:04 2024
  Analysis ended on:  Thu Oct 31 20:14:04 2024
  Total elapsed time: < 1 sec