
  EPA STORM WATER MANAGEMENT MODEL - VERSION 5.2 (Build 5.2.4)
  PYSWMM TOOLKIT API - VERSION v1.0 (2023-11-27)
  ------------------------------------------------------------

  WARNING 04: minimum elevation drop used for Conduit C23
  WARNING 04: minimum elevation drop used for Conduit C24
  WARNING 04: minimum elevation drop used for Conduit C25
  WARNING 04: minimum elevation drop used for Conduit C26
  WARNING 04: minimum elevation drop used for Conduit C27
  WARNING 04: minimum elevation drop used for Conduit C28
  WARNING 04: minimum elevation drop used for Conduit C29
  WARNING 04: minimum elevation drop used for Conduit C30
  WARNING 04: minimum elevation drop used for Conduit C31
  WARNING 04: minimum elevation drop used for Conduit C32
  WARNING 04: minimum elevation drop used for Conduit C33
  WARNING 04: minimum elevation drop used for Conduit C34
  WARNING 04: minimum elevation drop used for Conduit C35
  WARNING 04: minimum elevation drop used for Conduit C36
  WARNING 04: minimum elevation drop used for Conduit C37
  WARNING 04: minimum elevation drop used for Conduit C38
  WARNING 04: minimum elevation drop used for Conduit C39
  WARNING 04: minimum elevation drop used for Conduit C40
  WARNING 04: minimum elevation drop used for Conduit C41
  WARNING 04: minimum elevation drop used for Conduit C43
  WARNING 04: minimum elevation drop used for Conduit C44
  WARNING 04: minimum elevation drop used for Conduit C45
  WARNING 04: minimum elevation drop used for Conduit C46
  WARNING 04: minimum elevation drop used for Conduit C48
  WARNING 04: minimum elevation drop used for Conduit C42
  WARNING 04: minimum elevation drop used for Conduit C50
  WARNING 04: minimum elevation drop used for Conduit C49
  WARNING 04: minimum elevation drop used for Conduit C01
  WARNING 04: minimum elevation drop used for Conduit C02
  WARNING 04: minimum elevation drop used for Conduit C03
  WARNING 04: minimum elevation drop used for Conduit C04
  WARNING 04: minimum elevation drop used for Conduit C05
  WARNING 04: minimum elevation drop used for Conduit C06
  WARNING 04: minimum elevation drop used for Conduit C07
  WARNING 04: minimum elevation drop used for Conduit C08
  WARNING 04: minimum elevation drop used for Conduit C09
  WARNING 04: minimum elevation drop used for Conduit C10
  WARNING 04: minimum elevation drop used for Conduit C11
  WARNING 04: minimum elevation drop used for Conduit C12
  WARNING 04: minimum elevation drop used for Conduit C13
  WARNING 04: minimum elevation drop used for Conduit C14
  WARNING 04: minimum elevation drop used for Conduit C15
  WARNING 04: minimum elevation drop used for Conduit C16
  WARNING 04: minimum elevation drop used for Conduit C17
  WARNING 04: minimum elevation drop used for Conduit C18
  WARNING 04: minimum elevation drop used for Conduit C19
  WARNING 04: minimum elevation drop used for Conduit C20
  WARNING 04: minimum elevation drop used for Conduit C21
  WARNING 04: minimum elevation drop used for Conduit C22
  WARNING 04: minimum elevation drop used for Conduit C47
  WARNING 04: minimum elevation drop used for Conduit Cout
  
  ****************
  Analysis Options
  ****************
  Flow Units ............... CMS
  Process Models:
    Rainfall/Runoff ........ YES
    RDII ................... NO
    Snowmelt ............... NO
    Groundwater ............ NO
    Flow Routing ........... YES
    Ponding Allowed ........ NO
    Water Quality .......... NO
  Infiltration Method ...... HORTON
  Flow Routing Method ...... DYNWAVE
  Surcharge Method ......... EXTRAN
  Starting Date ............ 03/12/2023 12:00:00
  Ending Date .............. 03/12/2023 12:50:00
  Antecedent Dry Days ...... 0.0
  Report Time Step ......... 00:10:00
  Wet Time Step ............ 00:05:00
  Dry Time Step ............ 01:00:00
  Routing Time Step ........ 300.00 sec
  Variable Time Step ....... YES
  Maximum Trials ........... 8
  Number of Threads ........ 1
  Head Tolerance ........... 0.001524 m
  
  
  *********************
  Rainfall File Summary
  *********************
  Station    First        Last         Recording   Periods    Periods    Periods
  ID         Date         Date         Frequency  w/Precip    Missing    Malfunc.
  -------------------------------------------------------------------------------
  316        03/12/2023   03/12/2023      10 min         6          0          0

  
  
  **************************        Volume         Depth
  Runoff Quantity Continuity     hectare-m            mm
  **************************     ---------       -------
  Total Precipitation ......       133.298      1333.034
  Evaporation Loss .........         0.000         0.000
  Infiltration Loss ........         0.000         0.000
  Surface Runoff ...........       126.127      1261.323
  Final Storage ............         9.128        91.284
  Continuity Error (%) .....        -1.468
  
  
  **************************        Volume        Volume
  Flow Routing Continuity        hectare-m      10^6 ltr
  **************************     ---------     ---------
  Dry Weather Inflow .......         0.000         0.000
  Wet Weather Inflow .......       119.688      1196.896
  Groundwater Inflow .......         0.000         0.000
  RDII Inflow ..............         0.000         0.000
  External Inflow ..........         0.000         0.000
  External Outflow .........         2.104        21.044
  Flooding Loss ............       113.304      1133.047
  Evaporation Loss .........         0.000         0.000
  Exfiltration Loss ........         0.000         0.000
  Initial Stored Volume ....         0.046         0.463
  Final Stored Volume ......         1.883        18.831
  Continuity Error (%) .....         2.041
  
  
  *************************
  Highest Continuity Errors
  *************************
  Node J30 (18.88%)
  Node J3 (17.28%)
  Node J17 (11.32%)
  Node J18 (8.26%)
  Node J24 (7.05%)
  
  
  ***************************
  Time-Step Critical Elements
  ***************************
  Link Cout (98.98%)
  
  
  ********************************
  Highest Flow Instability Indexes
  ********************************
  Link C24 (2)
  Link C31 (2)
  Link C33 (2)
  Link C34 (2)
  Link C36 (2)
  
  
  *********************************
  Most Frequent Nonconverging Nodes
  *********************************
  Convergence obtained at all time steps.
  
  
  *************************
  Routing Time Step Summary
  *************************
  Minimum Time Step           :     4.91 sec
  Average Time Step           :    15.30 sec
  Maximum Time Step           :   300.00 sec
  % of Time in Steady State   :     0.00
  Average Iterations per Step :     2.02
  % of Steps Not Converging   :     0.00
  Time Step Frequencies       :
     300.000 - 83.462 sec      :     0.51 %
     83.462 - 23.220 sec      :     0.00 %
     23.220 -  6.460 sec      :    98.46 %
      6.460 -  1.797 sec      :     1.03 %
      1.797 -  0.500 sec      :     0.00 %
  
  
  ***************************
  Subcatchment Runoff Summary
  ***************************
  
  ------------------------------------------------------------------------------------------------------------------------------
                            Total      Total      Total      Total     Imperv       Perv      Total       Total     Peak  Runoff
                           Precip      Runon       Evap      Infil     Runoff     Runoff     Runoff      Runoff   Runoff   Coeff
  Subcatchment                 mm         mm         mm         mm         mm         mm         mm    10^6 ltr      CMS
  ------------------------------------------------------------------------------------------------------------------------------
  S1                      1333.03       0.00       0.00       0.00      13.20    1319.84    1333.03      336.27   186.90   1.000
  S2                      1333.03       0.00       0.00       0.00      12.13    1322.32    1334.45       10.37     5.76   1.001
  S3                      1333.03       0.00       0.00       0.00      12.13    1320.90    1333.03        2.76     1.53   1.000
  S4                      1333.03       0.00       0.00       0.00      12.13    1320.90    1333.03        2.73     1.52   1.000
  S5                      1333.03       0.00       0.00       0.00      12.13    1320.90    1333.03        3.99     2.22   1.000
  S6                      1333.03       0.00       0.00       0.00      12.13    1320.90    1333.03       10.98     6.11   1.000
  S7                      1333.03       0.00       0.00       0.00      12.13    1320.90    1333.03        2.07     1.15   1.000
  S8                      1333.03       0.00       0.00       0.00      12.13    1320.90    1333.03        6.49     3.61   1.000
  S9                      1333.03       0.00       0.00       0.00      12.13    1320.90    1333.03        8.02     4.46   1.000
  S10                     1333.03       0.00       0.00       0.00       0.00    1320.90    1320.90        1.86     1.04   0.991
  S11                     1333.03       0.00       0.00       0.00      12.13    1284.77    1296.90       18.97    10.83   0.973
  S12                     1333.03       0.00       0.00       0.00      12.13    1320.90    1333.03       11.57     6.43   1.000
  S13                     1333.03       0.00       0.00       0.00       0.00    1320.90    1320.90       11.15     6.20   0.991
  S14                     1333.03       0.00       0.00       0.00      11.20    1321.84    1333.03       10.70     5.95   1.000
  S15                     1333.03       0.00       0.00       0.00      11.20    1321.84    1333.03       10.00     5.56   1.000
  S16                     1333.03       0.00       0.00       0.00      10.26    1320.88    1331.14       23.51    13.08   0.999
  S17                     1333.03       0.00       0.00       0.00      10.26    1217.23    1227.50       41.80    24.87   0.921
  S18                     1333.03       0.00       0.00       0.00      10.26    1322.76    1333.02        1.72     0.96   1.000
  S19                     1333.03       0.00       0.00       0.00      10.26       0.00      10.26        0.02     0.01   0.008
  S20                     1333.03       0.00       0.00       0.00      10.26    1322.77    1333.03        1.36     0.76   1.000
  S21                     1333.03       0.00       0.00       0.00      10.26    1307.37    1317.64       21.85    12.28   0.988
  S22                     1333.03       0.00       0.00       0.00      10.26    1322.65    1332.91        0.44     0.24   1.000
  S23                     1333.03       0.00       0.00       0.00      10.26    1322.77    1333.03        0.52     0.29   1.000
  S24                     1333.03       0.00       0.00       0.00      10.26    1322.77    1333.03        0.65     0.36   1.000
  S25                     1333.03       0.00       0.00       0.00      10.26    1322.77    1333.03        0.79     0.44   1.000
  S26                     1333.03       0.00       0.00       0.00      10.26    1322.77    1333.03        0.92     0.51   1.000
  S27                     1333.03       0.00       0.00       0.00      10.26    1323.30    1333.57       11.08     6.16   1.000
  S28                     1333.03       0.00       0.00       0.00      10.26    1310.08    1320.34       11.72     6.58   0.990
  S29                     1333.03       0.00       0.00       0.00      10.26    1322.73    1332.99        1.23     0.68   1.000
  S30                     1333.03       0.00       0.00       0.00      10.26    1186.33    1196.60       76.22    45.83   0.898
  S31                     1333.03       0.00       0.00       0.00      10.66    1322.37    1333.03       18.06    10.04   1.000
  S32                     1333.03       0.00       0.00       0.00      10.66    1322.37    1333.03        5.56     3.09   1.000
  S33                     1333.03       0.00       0.00       0.00      12.53    1320.50    1333.03        4.15     2.30   1.000
  S34                     1333.03       0.00       0.00       0.00      12.53    1320.50    1333.03        4.39     2.44   1.000
  S35                     1333.03       0.00       0.00       0.00      12.13    1320.90    1333.03        5.36     2.98   1.000
  S36                     1333.03       0.00       0.00       0.00      12.13    1320.90    1333.03        2.20     1.22   1.000
  S37                     1333.03       0.00       0.00       0.00      12.13    1320.90    1333.03        4.80     2.67   1.000
  S38                     1333.03       0.00       0.00       0.00      12.13    1320.90    1333.03        0.21     0.12   1.000
  S39                     1333.03       0.00       0.00       0.00      12.13    1320.90    1333.03        5.47     3.04   1.000
  S40                     1333.03       0.00       0.00       0.00      12.13    1320.90    1333.03        1.88     1.04   1.000
  S41                     1333.03       0.00       0.00       0.00      12.13    1320.90    1333.03        3.03     1.68   1.000
  S42                     1333.03       0.00       0.00       0.00      12.13    1320.90    1333.03        4.21     2.34   1.000
  S43                     1333.03       0.00       0.00       0.00      12.13    1320.90    1333.03        9.60     5.33   1.000
  S44                     1333.03       0.00       0.00       0.00      12.13    1320.90    1333.03        6.96     3.87   1.000
  S45                     1333.03       0.00       0.00       0.00      12.13    1320.90    1333.03        0.71     0.39   1.000
  S46                     1333.03       0.00       0.00       0.00      12.13    1320.90    1333.03        6.45     3.59   1.000
  S47                     1333.03       0.00       0.00       0.00      12.13    1320.90    1333.03       13.04     7.25   1.000
  S48                     1333.03       0.00       0.00       0.00      12.13    1320.90    1333.03       15.06     8.37   1.000
  S49                     1333.03       0.00       0.00       0.00      12.13    1320.90    1333.03        9.16     5.09   1.000
  S50                     1333.03       0.00       0.00       0.00      12.13    1320.90    1333.03        7.55     4.19   1.000
  S51                     1333.03       0.00       0.00       0.00      12.13    1320.90    1333.03        4.45     2.47   1.000
  S52                     1333.03       0.00       0.00       0.00      12.13    1320.90    1333.03       11.80     6.56   1.000
  S53                     1333.03       0.00       0.00       0.00      12.13    1309.29    1321.42       16.10     9.02   0.991
  S54                     1333.03       0.00       0.00       0.00      12.13    1322.38    1334.51        6.10     3.39   1.001
  S55                     1333.03       0.00       0.00       0.00      12.13    1320.90    1333.03        0.51     0.28   1.000
  S56                     1333.03       0.00       0.00       0.00      12.13    1320.84    1332.97        0.51     0.28   1.000
  S57                     1333.03       0.00       0.00       0.00      12.13    1320.90    1333.03        6.89     3.83   1.000
  S58                     1333.03       0.00       0.00       0.00      12.13    1320.90    1333.03        8.85     4.92   1.000
  S59                     1333.03       0.00       0.00       0.00      12.13    1320.90    1333.03        8.60     4.78   1.000
  S60                     1333.03       0.00       0.00       0.00      10.26    1324.01    1334.27        5.24     2.91   1.001
  S61                     1333.03       0.00       0.00       0.00      10.26       0.00      10.26        0.03     0.02   0.008
  S62                     1333.03       0.00       0.00       0.00      10.26    1164.99    1175.25       62.98    37.99   0.882
  S63                     1333.03       0.00       0.00       0.00      10.26    1322.77    1333.03       12.53     6.96   1.000
  S64                     1333.03       0.00       0.00       0.00      10.26    1322.77    1333.03       33.93    18.86   1.000
  S65                     1333.03       0.00       0.00       0.00      10.26    1322.77    1333.03        5.41     3.01   1.000
  S66                     1333.03       0.00       0.00       0.00      10.26    1322.77    1333.03        8.73     4.85   1.000
  S67                     1333.03       0.00       0.00       0.00      10.26    1322.77    1333.03       16.32     9.07   1.000
  S68                     1333.03       0.00       0.00       0.00      10.26    1322.77    1333.03       19.13    10.63   1.000
  S69                     1333.03       0.00       0.00       0.00      10.26       0.00      10.26        0.26     0.14   0.008
  S70                     1333.03       0.00       0.00       0.00      10.26    1306.10    1316.37       34.45    19.38   0.987
  S71                     1333.03       0.00       0.00       0.00      12.13    1320.90    1333.03       19.61    10.90   1.000
  S72                     1333.03       0.00       0.00       0.00      10.26    1322.27    1332.53        6.61     3.67   1.000
  S73                     1333.03       0.00       0.00       0.00      10.26    1322.77    1333.03       27.94    15.53   1.000
  S74                     1333.03       0.00       0.00       0.00      10.26       0.00      10.26        0.07     0.04   0.008
  S75                     1333.03       0.00       0.00       0.00      10.26    1322.77    1333.03        0.89     0.50   1.000
  S76                     1333.03       0.00       0.00       0.00      10.26    1322.77    1333.03       17.61     9.79   1.000
  S77                     1333.03       0.00       0.00       0.00      10.26    1322.77    1333.03       14.25     7.92   1.000
  S78                     1333.03       0.00       0.00       0.00      10.26    1322.77    1333.03       10.33     5.74   1.000
  S79                     1333.03       0.00       0.00       0.00      12.13    1320.90    1333.03        9.05     5.03   1.000
  S80                     1333.03       0.00       0.00       0.00      10.26    1323.25    1333.51        3.68     2.04   1.000
  S81                     1333.03       0.00       0.00       0.00      10.26    1322.77    1333.03       15.08     8.38   1.000
  S82                     1333.03       0.00       0.00       0.00      10.26    1322.77    1333.03       14.72     8.18   1.000
  S83                     1333.03       0.00       0.00       0.00      10.26    1322.77    1333.03        9.46     5.26   1.000
  S84                     1333.03       0.00       0.00       0.00      12.13    1320.90    1333.03        6.19     3.44   1.000
  S85                     1333.03       0.00       0.00       0.00      12.13    1314.54    1326.67       16.40     9.16   0.995
  S86                     1333.03       0.00       0.00       0.00       0.00    1320.90    1320.90       15.28     8.49   0.991
  S87                     1333.03       0.00       0.00       0.00      12.13    1320.90    1333.03       16.56     9.20   1.000
  S88                     1333.03       0.00       0.00       0.00      12.13    1320.90    1333.03        2.99     1.66   1.000
  S89                     1333.03       0.00       0.00       0.00      12.13    1320.90    1333.03       13.48     7.49   1.000
  S90                     1333.03       0.00       0.00       0.00       0.00    1320.90    1320.90        6.49     3.60   0.991
  S91                     1333.03       0.00       0.00       0.00      12.13    1320.90    1333.03        2.20     1.22   1.000
  
  
  ******************
  Node Depth Summary
  ******************
  
  ---------------------------------------------------------------------------------
                                 Average  Maximum  Maximum  Time of Max    Reported
                                   Depth    Depth      HGL   Occurrence   Max Depth
  Node                 Type       Meters   Meters   Meters  days hr:min      Meters
  ---------------------------------------------------------------------------------
  J7                   JUNCTION     2.49     2.50     2.50     0  00:05        2.50
  J13                  JUNCTION     2.49     2.50     2.50     0  00:05        2.50
  J19                  JUNCTION     2.49     2.50     2.50     0  00:05        2.50
  J25                  JUNCTION     2.49     2.50     2.50     0  00:05        2.50
  J1                   JUNCTION     2.49     2.50     2.50     0  00:05        2.50
  J2                   JUNCTION     2.49     2.50     2.50     0  00:05        2.50
  J3                   JUNCTION     2.49     2.50     2.50     0  00:05        2.50
  J4                   JUNCTION     2.49     2.50     2.50     0  00:05        2.50
  J5                   JUNCTION     2.49     2.50     2.50     0  00:05        2.50
  J6                   JUNCTION     2.49     2.50     2.50     0  00:05        2.50
  J8                   JUNCTION     2.49     2.50     2.50     0  00:05        2.50
  J9                   JUNCTION     2.49     2.50     2.50     0  00:05        2.50
  J10                  JUNCTION     2.49     2.50     2.50     0  00:05        2.50
  J11                  JUNCTION     2.49     2.50     2.50     0  00:05        2.50
  J12                  JUNCTION     2.49     2.50     2.50     0  00:05        2.50
  J14                  JUNCTION     2.49     2.50     2.50     0  00:05        2.50
  J15                  JUNCTION     2.49     2.50     2.50     0  00:05        2.50
  J16                  JUNCTION     2.49     2.50     2.50     0  00:05        2.50
  J17                  JUNCTION     2.49     2.50     2.50     0  00:05        2.50
  J18                  JUNCTION     2.49     2.50     2.50     0  00:05        2.50
  J20                  JUNCTION     2.49     2.50     2.50     0  00:05        2.50
  J21                  JUNCTION     2.49     2.50     2.50     0  00:05        2.50
  J22                  JUNCTION     2.49     2.50     2.50     0  00:05        2.50
  J23                  JUNCTION     2.49     2.50     2.50     0  00:05        2.50
  J24                  JUNCTION     2.49     2.50     2.50     0  00:05        2.50
  J26                  JUNCTION     2.49     2.50     2.50     0  00:05        2.50
  J27                  JUNCTION     2.49     2.50     2.50     0  00:05        2.50
  J29                  JUNCTION     2.49     2.50     2.50     0  00:05        2.50
  J30                  JUNCTION     2.49     2.50     2.50     0  00:05        2.50
  J31                  JUNCTION     2.49     2.50     2.50     0  00:05        2.50
  J33                  JUNCTION     2.49     2.50     2.50     0  00:05        2.50
  J32                  JUNCTION     2.49     2.50     2.50     0  00:05        2.50
  J28                  JUNCTION     2.49     2.50     2.50     0  00:05        2.50
  OF                   OUTFALL      1.36     1.41     1.41     0  00:05        1.37
  
  
  *******************
  Node Inflow Summary
  *******************
  
  -------------------------------------------------------------------------------------------------
                                  Maximum  Maximum                  Lateral       Total        Flow
                                  Lateral    Total  Time of Max      Inflow      Inflow     Balance
                                   Inflow   Inflow   Occurrence      Volume      Volume       Error
  Node                 Type           CMS      CMS  days hr:min    10^6 ltr    10^6 ltr     Percent
  -------------------------------------------------------------------------------------------------
  J7                   JUNCTION    50.273   50.273     0  00:20        80.4        80.4       2.009
  J13                  JUNCTION     4.227    4.227     0  00:20        7.22        7.22       4.018
  J19                  JUNCTION   200.320  200.320     0  00:20         342         342       3.910
  J25                  JUNCTION    24.872   25.160     0  00:20        39.6        40.5       2.124
  J1                   JUNCTION    16.815   16.815     0  00:20        28.7        28.7       4.101
  J2                   JUNCTION    12.633   12.688     0  00:15        21.6        21.7       2.983
  J3                   JUNCTION     0.563   19.970     0  00:05       0.962        8.28      20.893
  J4                   JUNCTION    36.579   37.351     0  00:15        62.5        64.4       2.760
  J5                   JUNCTION    30.244   30.244     0  00:20        51.7        51.7       2.182
  J6                   JUNCTION    13.233   13.233     0  00:15        22.6        22.6       4.027
  J8                   JUNCTION    20.360   20.360     0  00:20        34.8        34.8       4.119
  J9                   JUNCTION     9.157    9.157     0  00:20        15.6        15.6       2.948
  J10                  JUNCTION    13.662   13.662     0  00:20        23.3        23.3       3.409
  J11                  JUNCTION    14.678   15.172     0  00:15        25.1        26.2       3.342
  J12                  JUNCTION    15.530   15.872     0  00:15        26.5        27.3       3.382
  J14                  JUNCTION    13.159   13.159     0  00:20        22.5        22.5       4.119
  J15                  JUNCTION    18.833   18.833     0  00:20          32          32       3.713
  J16                  JUNCTION    10.899   12.254     0  00:05        18.6        21.3       3.400
  J17                  JUNCTION     0.142    8.732     0  00:05       0.242        5.54      12.765
  J18                  JUNCTION     0.496    4.234     0  00:05       0.848        3.47       9.006
  J20                  JUNCTION    36.802   36.802     0  00:20        62.3        62.3       3.883
  J21                  JUNCTION    12.146   12.146     0  00:20        20.7        20.7       4.119
  J22                  JUNCTION    24.942   24.942     0  00:20        42.2        42.2       3.425
  J23                  JUNCTION    13.084   13.458     0  00:15        22.3        23.3       2.975
  J24                  JUNCTION     1.725    5.117     0  00:05        2.95        5.31       7.586
  J26                  JUNCTION    10.728   10.728     0  00:15        18.3        18.3       4.119
  J27                  JUNCTION     9.410   10.435     0  00:05        16.1        18.1       3.556
  J29                  JUNCTION    15.433   15.769     0  00:15        26.4        27.2       3.096
  J30                  JUNCTION     0.000   19.766     0  00:05           0        7.49      23.274
  J31                  JUNCTION    45.834   46.118     0  00:20        72.2        73.1       1.482
  J33                  JUNCTION    15.185   15.185     0  00:20        25.9        25.9       4.112
  J32                  JUNCTION     6.928    6.928     0  00:15        11.8        11.8       3.663
  J28                  JUNCTION    11.077   13.506     0  00:05        18.9        21.6       3.199
  OF                   OUTFALL      0.000    7.968     0  00:05           0          21       0.000
  
  
  **********************
  Node Surcharge Summary
  **********************
  
  Surcharging occurs when water rises above the top of the highest conduit.
  ---------------------------------------------------------------------
                                               Max. Height   Min. Depth
                                   Hours       Above Crown    Below Rim
  Node                 Type      Surcharged         Meters       Meters
  ---------------------------------------------------------------------
  J7                   JUNCTION        0.83          0.850        0.000
  J13                  JUNCTION        0.83          0.850        0.000
  J19                  JUNCTION        0.83          0.850        0.000
  J25                  JUNCTION        0.83          0.850        0.000
  J1                   JUNCTION        0.83          0.850        0.000
  J2                   JUNCTION        0.83          0.850        0.000
  J3                   JUNCTION        0.83          0.850        0.000
  J4                   JUNCTION        0.83          0.850        0.000
  J5                   JUNCTION        0.83          0.850        0.000
  J6                   JUNCTION        0.83          0.850        0.000
  J8                   JUNCTION        0.83          0.850        0.000
  J9                   JUNCTION        0.83          0.850        0.000
  J10                  JUNCTION        0.83          0.850        0.000
  J11                  JUNCTION        0.83          0.850        0.000
  J12                  JUNCTION        0.83          0.850        0.000
  J14                  JUNCTION        0.83          0.850        0.000
  J15                  JUNCTION        0.83          0.850        0.000
  J16                  JUNCTION        0.83          0.850        0.000
  J17                  JUNCTION        0.83          0.850        0.000
  J18                  JUNCTION        0.83          0.850        0.000
  J20                  JUNCTION        0.83          0.850        0.000
  J21                  JUNCTION        0.83          0.850        0.000
  J22                  JUNCTION        0.83          0.850        0.000
  J23                  JUNCTION        0.83          0.850        0.000
  J24                  JUNCTION        0.83          0.850        0.000
  J26                  JUNCTION        0.83          0.850        0.000
  J27                  JUNCTION        0.83          0.850        0.000
  J29                  JUNCTION        0.83          0.850        0.000
  J30                  JUNCTION        0.83          0.850        0.000
  J31                  JUNCTION        0.83          0.850        0.000
  J33                  JUNCTION        0.83          0.850        0.000
  J32                  JUNCTION        0.83          0.850        0.000
  J28                  JUNCTION        0.83          0.850        0.000
  
  
  *********************
  Node Flooding Summary
  *********************
  
  Flooding refers to all water that overflows a node, whether it ponds or not.
  --------------------------------------------------------------------------
                                                             Total   Maximum
                                 Maximum   Time of Max       Flood    Ponded
                        Hours       Rate    Occurrence      Volume     Depth
  Node                 Flooded       CMS   days hr:min    10^6 ltr    Meters
  --------------------------------------------------------------------------
  J7                      0.83    49.843      0  00:20      78.667     0.000
  J13                     0.83     4.227      0  00:20       7.217     0.000
  J19                     0.83   192.969      0  00:20     321.005     0.000
  J25                     0.83    24.596      0  00:20      38.777     0.000
  J1                      0.83    16.762      0  00:20      28.575     0.000
  J2                      0.83    11.997      0  00:20      19.282     0.000
  J3                      0.83    17.966      0  00:05       8.283     0.000
  J4                      0.83    36.746      0  00:20      60.667     0.000
  J5                      0.83    29.021      0  00:20      45.836     0.000
  J6                      0.83    13.073      0  00:20      22.177     0.000
  J8                      0.83    20.360      0  00:20      34.777     0.000
  J9                      0.83     8.800      0  00:20      14.238     0.000
  J10                     0.83    12.865      0  00:20      20.953     0.000
  J11                     0.83    14.572      0  00:20      24.278     0.000
  J12                     0.83    15.454      0  00:20      25.772     0.000
  J14                     0.83    13.159      0  00:20      22.476     0.000
  J15                     0.83    18.531      0  00:20      31.081     0.000
  J16                     0.83    11.469      0  00:15      19.595     0.000
  J17                     0.83     8.385      0  00:05       5.543     0.000
  J18                     0.83     3.842      0  00:05       3.015     0.000
  J20                     0.83    36.801      0  00:20      62.348     0.000
  J21                     0.83    12.146      0  00:20      20.746     0.000
  J22                     0.83    24.350      0  00:20      40.329     0.000
  J23                     0.83    12.719      0  00:20      20.812     0.000
  J24                     0.83     4.972      0  00:05       5.311     0.000
  J26                     0.83    10.728      0  00:15      18.325     0.000
  J27                     0.83     9.691      0  00:15      16.574     0.000
  J29                     0.83    15.031      0  00:20      24.599     0.000
  J30                     0.83    17.874      0  00:05       7.492     0.000
  J31                     0.83    45.666      0  00:20      70.703     0.000
  J33                     0.83    15.185      0  00:20      25.948     0.000
  J32                     0.83     6.659      0  00:20      11.039     0.000
  J28                     0.83    11.461      0  00:15      19.409     0.000
  
  
  ***********************
  Outfall Loading Summary
  ***********************
  
  -----------------------------------------------------------
                         Flow       Avg       Max       Total
                         Freq      Flow      Flow      Volume
  Outfall Node           Pcnt       CMS       CMS    10^6 ltr
  -----------------------------------------------------------
  OF                   100.00     7.321     7.968      21.044
  -----------------------------------------------------------
  System               100.00     7.321     7.968      21.044
  
  
  ********************
  Link Flow Summary
  ********************
  
  -----------------------------------------------------------------------------
                                 Maximum  Time of Max   Maximum    Max/    Max/
                                  |Flow|   Occurrence   |Veloc|    Full    Full
  Link                 Type          CMS  days hr:min     m/sec    Flow   Depth
  -----------------------------------------------------------------------------
  P1                   PUMP        0.000     0  00:00                          
  C23                  CONDUIT     0.000     0  00:00      0.00    0.00    1.00
  C24                  CONDUIT     0.833     0  00:05      0.39    7.22    1.00
  C25                  CONDUIT     0.000     0  00:00      0.00    0.00    1.00
  C26                  CONDUIT     0.437     0  00:05      0.20    3.42    1.00
  C27                  CONDUIT     0.000     0  00:00      0.00    0.00    1.00
  C28                  CONDUIT     1.848     0  00:05      0.86   12.74    1.00
  C29                  CONDUIT     0.061     0  00:05      0.03    0.43    1.00
  C30                  CONDUIT     0.851     0  00:05      0.40    7.48    1.00
  C31                  CONDUIT     0.360     0  00:05      0.17    3.15    1.00
  C32                  CONDUIT     4.831     0  00:05      2.26   31.22    1.00
  C33                  CONDUIT    12.306     0  00:05      5.75   72.00    1.00
  C34                  CONDUIT     1.037     0  00:05      0.48    8.25    1.00
  C35                  CONDUIT     0.000     0  00:05      0.00    0.00    1.00
  C36                  CONDUIT     0.250     0  00:05      0.12    2.36    1.00
  C37                  CONDUIT     1.847     0  00:05      0.86   12.68    1.00
  C38                  CONDUIT     1.336     0  00:05      0.62    9.31    1.00
  C39                  CONDUIT     2.334     0  00:05      1.09   14.79    1.00
  C40                  CONDUIT     0.000     0  00:00      0.00    0.00    1.00
  C41                  CONDUIT     0.000     0  00:00      0.00    0.00    1.00
  C43                  CONDUIT     0.000     0  00:00      0.00    0.00    1.00
  C44                  CONDUIT     0.000     0  00:05      0.00    0.00    1.00
  C45                  CONDUIT    10.912     0  00:05      5.10   93.63    1.00
  C46                  CONDUIT     5.783     0  00:05      2.70   47.92    1.00
  C48                  CONDUIT     0.000     0  00:05      0.00    0.00    1.00
  C42                  CONDUIT     3.071     0  00:05      1.44   24.35    1.00
  C50                  CONDUIT     0.688     0  00:05      0.32    6.65    1.00
  C49                  CONDUIT     0.789     0  00:05      0.37    6.89    1.00
  C01                  CONDUIT     0.000     0  00:00      0.00    0.00    1.00
  C02                  CONDUIT     0.000     0  00:00      0.00    0.00    1.00
  C03                  CONDUIT     0.982     0  00:05      0.46    7.84    1.00
  C04                  CONDUIT     0.845     0  00:05      0.40    6.65    1.00
  C05                  CONDUIT     0.490     0  00:05      0.23    3.91    1.00
  C06                  CONDUIT     0.000     0  00:00      0.00    0.00    1.00
  C07                  CONDUIT     0.000     0  00:00      0.00    0.00    1.00
  C08                  CONDUIT     0.000     0  00:00      0.00    0.00    1.00
  C09                  CONDUIT     0.820     0  00:05      0.38    7.18    1.00
  C10                  CONDUIT     0.948     0  00:05      0.44    7.56    1.00
  C11                  CONDUIT     0.000     0  00:00      0.00    0.00    1.00
  C12                  CONDUIT     2.623     0  00:05      1.23   22.60    1.00
  C13                  CONDUIT     1.158     0  00:05      0.54   10.07    1.00
  C14                  CONDUIT     3.124     0  00:05      1.46   24.82    1.00
  C15                  CONDUIT     0.268     0  00:05      0.13    2.13    1.00
  C16                  CONDUIT     3.099     0  00:05      1.45   27.20    1.00
  C17                  CONDUIT     2.591     0  00:05      1.21   22.87    1.00
  C18                  CONDUIT     0.000     0  00:00      0.00    0.00    1.00
  C19                  CONDUIT     0.000     0  00:00      0.00    0.00    1.00
  C20                  CONDUIT     2.637     0  00:05      1.23   23.48    1.00
  C21                  CONDUIT     0.000     0  00:05      0.00    0.00    1.00
  C22                  CONDUIT     0.215     0  00:05      0.10    1.70    1.00
  C47                  CONDUIT     0.813     0  00:05      0.38    8.36    1.00
  Cout                 CONDUIT     7.968     0  00:05      3.85   62.92    0.93
  
  
  ***************************
  Flow Classification Summary
  ***************************
  
  -------------------------------------------------------------------------------------
                      Adjusted    ---------- Fraction of Time in Flow Class ---------- 
                       /Actual         Up    Down  Sub   Sup   Up    Down  Norm  Inlet 
  Conduit               Length    Dry  Dry   Dry   Crit  Crit  Crit  Crit  Ltd   Ctrl  
  -------------------------------------------------------------------------------------
  C23                     1.00   0.00  0.00  0.00  1.00  0.00  0.00  0.00  0.00  0.00
  C24                     1.00   0.00  0.00  0.00  1.00  0.00  0.00  0.00  0.00  0.00
  C25                     1.00   0.00  0.00  0.00  1.00  0.00  0.00  0.00  0.00  0.00
  C26                     1.00   0.00  0.00  0.00  1.00  0.00  0.00  0.00  0.00  0.00
  C27                     1.00   0.00  0.00  0.00  1.00  0.00  0.00  0.00  0.00  0.00
  C28                     1.00   0.00  0.00  0.00  1.00  0.00  0.00  0.00  0.00  0.00
  C29                     1.00   0.00  0.00  0.00  1.00  0.00  0.00  0.00  0.00  0.00
  C30                     1.00   0.00  0.00  0.00  1.00  0.00  0.00  0.00  0.00  0.00
  C31                     1.00   0.00  0.00  0.00  1.00  0.00  0.00  0.00  0.00  0.00
  C32                     1.00   0.00  0.00  0.00  1.00  0.00  0.00  0.00  0.00  0.00
  C33                     1.00   0.00  0.00  0.00  1.00  0.00  0.00  0.00  0.00  0.00
  C34                     1.00   0.00  0.00  0.00  1.00  0.00  0.00  0.00  0.00  0.00
  C35                     1.00   0.00  0.00  0.00  1.00  0.00  0.00  0.00  0.00  0.00
  C36                     1.00   0.00  0.00  0.00  1.00  0.00  0.00  0.00  0.00  0.00
  C37                     1.00   0.00  0.00  0.00  1.00  0.00  0.00  0.00  0.00  0.00
  C38                     1.00   0.00  0.00  0.00  1.00  0.00  0.00  0.00  0.00  0.00
  C39                     1.00   0.00  0.00  0.00  1.00  0.00  0.00  0.00  0.00  0.00
  C40                     1.00   0.00  0.00  0.00  1.00  0.00  0.00  0.00  0.00  0.00
  C41                     1.00   0.00  0.00  0.00  1.00  0.00  0.00  0.00  0.00  0.00
  C43                     1.00   0.00  0.00  0.00  1.00  0.00  0.00  0.00  0.00  0.00
  C44                     1.00   0.00  0.00  0.00  1.00  0.00  0.00  0.00  0.00  0.00
  C45                     1.00   0.00  0.00  0.00  1.00  0.00  0.00  0.00  0.00  0.00
  C46                     1.00   0.00  0.00  0.00  1.00  0.00  0.00  0.00  0.00  0.00
  C48                     1.00   0.00  0.00  0.00  1.00  0.00  0.00  0.00  0.00  0.00
  C42                     1.00   0.00  0.00  0.00  1.00  0.00  0.00  0.00  0.00  0.00
  C50                     1.00   0.00  0.00  0.00  1.00  0.00  0.00  0.00  0.00  0.00
  C49                     1.00   0.00  0.00  0.00  1.00  0.00  0.00  0.00  0.00  0.00
  C01                     1.00   0.00  0.00  0.00  1.00  0.00  0.00  0.00  0.00  0.00
  C02                     1.00   0.00  0.00  0.00  1.00  0.00  0.00  0.00  0.00  0.00
  C03                     1.00   0.00  0.00  0.00  1.00  0.00  0.00  0.00  0.00  0.00
  C04                     1.00   0.00  0.00  0.00  1.00  0.00  0.00  0.00  0.00  0.00
  C05                     1.00   0.00  0.00  0.00  1.00  0.00  0.00  0.00  0.00  0.00
  C06                     1.00   0.00  0.00  0.00  1.00  0.00  0.00  0.00  0.00  0.00
  C07                     1.00   0.00  0.00  0.00  1.00  0.00  0.00  0.00  0.00  0.00
  C08                     1.00   0.00  0.00  0.00  1.00  0.00  0.00  0.00  0.00  0.00
  C09                     1.00   0.00  0.00  0.00  1.00  0.00  0.00  0.00  0.00  0.00
  C10                     1.00   0.00  0.00  0.00  1.00  0.00  0.00  0.00  0.00  0.00
  C11                     1.00   0.00  0.00  0.00  1.00  0.00  0.00  0.00  0.00  0.00
  C12                     1.00   0.00  0.00  0.00  1.00  0.00  0.00  0.00  0.00  0.00
  C13                     1.00   0.00  0.00  0.00  1.00  0.00  0.00  0.00  0.00  0.00
  C14                     1.00   0.00  0.00  0.00  1.00  0.00  0.00  0.00  0.00  0.00
  C15                     1.00   0.00  0.00  0.00  1.00  0.00  0.00  0.00  0.00  0.00
  C16                     1.00   0.00  0.00  0.00  1.00  0.00  0.00  0.00  0.00  0.00
  C17                     1.00   0.00  0.00  0.00  1.00  0.00  0.00  0.00  0.00  0.00
  C18                     1.00   0.00  0.00  0.00  1.00  0.00  0.00  0.00  0.00  0.00
  C19                     1.00   0.00  0.00  0.00  1.00  0.00  0.00  0.00  0.00  0.00
  C20                     1.00   0.00  0.00  0.00  1.00  0.00  0.00  0.00  0.00  0.00
  C21                     1.00   0.00  0.00  0.00  1.00  0.00  0.00  0.00  0.00  0.00
  C22                     1.00   0.00  0.00  0.00  1.00  0.00  0.00  0.00  0.00  0.00
  C47                     1.00   0.00  0.00  0.00  1.00  0.00  0.00  0.00  0.00  0.00
  Cout                    1.00   0.00  0.00  0.00  1.00  0.00  0.00  0.00  0.00  0.00
  
  
  *************************
  Conduit Surcharge Summary
  *************************
  
  ----------------------------------------------------------------------------
                                                           Hours        Hours 
                         --------- Hours Full --------   Above Full   Capacity
  Conduit                Both Ends  Upstream  Dnstream   Normal Flow   Limited
  ----------------------------------------------------------------------------
  C23                         0.83      0.83      0.83      0.01         0.01
  C24                         0.83      0.83      0.83      0.83         0.01
  C25                         0.83      0.83      0.83      0.01         0.01
  C26                         0.83      0.83      0.83      0.69         0.01
  C27                         0.83      0.83      0.83      0.01         0.01
  C28                         0.83      0.83      0.83      0.78         0.01
  C29                         0.83      0.83      0.83      0.01         0.01
  C30                         0.83      0.83      0.83      0.83         0.01
  C31                         0.83      0.83      0.83      0.74         0.01
  C32                         0.83      0.83      0.83      0.78         0.01
  C33                         0.83      0.83      0.83      0.73         0.01
  C34                         0.83      0.83      0.83      0.83         0.01
  C35                         0.83      0.83      0.83      0.01         0.01
  C36                         0.83      0.83      0.83      0.68         0.01
  C37                         0.83      0.83      0.83      0.78         0.01
  C38                         0.83      0.83      0.83      0.77         0.01
  C39                         0.83      0.83      0.83      0.74         0.01
  C40                         0.83      0.83      0.83      0.01         0.01
  C41                         0.83      0.83      0.83      0.01         0.01
  C43                         0.83      0.83      0.83      0.01         0.01
  C44                         0.83      0.83      0.83      0.01         0.01
  C45                         0.83      0.83      0.83      0.83         0.01
  C46                         0.83      0.83      0.83      0.83         0.01
  C48                         0.83      0.83      0.83      0.01         0.01
  C42                         0.83      0.83      0.83      0.83         0.01
  C50                         0.83      0.83      0.83      0.83         0.01
  C49                         0.83      0.83      0.83      0.83         0.01
  C01                         0.83      0.83      0.83      0.01         0.01
  C02                         0.83      0.83      0.83      0.01         0.01
  C03                         0.83      0.83      0.83      0.83         0.01
  C04                         0.83      0.83      0.83      0.82         0.01
  C05                         0.83      0.83      0.83      0.74         0.01
  C06                         0.83      0.83      0.83      0.01         0.01
  C07                         0.83      0.83      0.83      0.01         0.01
  C08                         0.83      0.83      0.83      0.01         0.01
  C09                         0.83      0.83      0.83      0.83         0.01
  C10                         0.83      0.83      0.83      0.83         0.01
  C11                         0.83      0.83      0.83      0.01         0.01
  C12                         0.83      0.83      0.83      0.83         0.01
  C13                         0.83      0.83      0.83      0.83         0.01
  C14                         0.83      0.83      0.83      0.83         0.01
  C15                         0.83      0.83      0.83      0.55         0.01
  C16                         0.83      0.83      0.83      0.83         0.01
  C17                         0.83      0.83      0.83      0.83         0.01
  C18                         0.83      0.83      0.83      0.01         0.01
  C19                         0.83      0.83      0.83      0.01         0.01
  C20                         0.83      0.83      0.83      0.83         0.01
  C21                         0.83      0.83      0.83      0.01         0.01
  C22                         0.83      0.83      0.83      0.44         0.01
  C47                         0.83      0.83      0.83      0.83         0.01
  Cout                        0.01      0.83      0.01      0.83         0.01
  
  
  ***************
  Pumping Summary
  ***************
  
  ---------------------------------------------------------------------------------------------------------
                                                  Min       Avg       Max     Total     Power    % Time Off
                        Percent   Number of      Flow      Flow      Flow    Volume     Usage    Pump Curve
  Pump                 Utilized   Start-Ups       CMS       CMS       CMS  10^6 ltr     Kw-hr    Low   High
  ---------------------------------------------------------------------------------------------------------
  P1                       0.00           0      0.00      0.00      0.00     0.000      0.00    0.0    0.0
  

  Analysis begun on:  Mon Nov 18 17:35:23 2024
  Analysis ended on:  Mon Nov 18 17:35:23 2024
  Total elapsed time: < 1 sec