
  EPA STORM WATER MANAGEMENT MODEL - VERSION 5.2 (Build 5.2.4)
  PYSWMM TOOLKIT API - VERSION v1.0 (2023-11-27)
  ------------------------------------------------------------

  WARNING 04: minimum elevation drop used for Conduit C23
  WARNING 04: minimum elevation drop used for Conduit C24
  WARNING 04: minimum elevation drop used for Conduit C25
  WARNING 04: minimum elevation drop used for Conduit C26
  WARNING 04: minimum elevation drop used for Conduit C27
  WARNING 04: minimum elevation drop used for Conduit C28
  WARNING 04: minimum elevation drop used for Conduit C29
  WARNING 04: minimum elevation drop used for Conduit C30
  WARNING 04: minimum elevation drop used for Conduit C31
  WARNING 04: minimum elevation drop used for Conduit C32
  WARNING 04: minimum elevation drop used for Conduit C33
  WARNING 04: minimum elevation drop used for Conduit C34
  WARNING 04: minimum elevation drop used for Conduit C35
  WARNING 04: minimum elevation drop used for Conduit C36
  WARNING 04: minimum elevation drop used for Conduit C37
  WARNING 04: minimum elevation drop used for Conduit C38
  WARNING 04: minimum elevation drop used for Conduit C39
  WARNING 04: minimum elevation drop used for Conduit C40
  WARNING 04: minimum elevation drop used for Conduit C41
  WARNING 04: minimum elevation drop used for Conduit C43
  WARNING 04: minimum elevation drop used for Conduit C44
  WARNING 04: minimum elevation drop used for Conduit C45
  WARNING 04: minimum elevation drop used for Conduit C46
  WARNING 04: minimum elevation drop used for Conduit C48
  WARNING 04: minimum elevation drop used for Conduit C42
  WARNING 04: minimum elevation drop used for Conduit C50
  WARNING 04: minimum elevation drop used for Conduit C49
  WARNING 04: minimum elevation drop used for Conduit C01
  WARNING 04: minimum elevation drop used for Conduit C02
  WARNING 04: minimum elevation drop used for Conduit C03
  WARNING 04: minimum elevation drop used for Conduit C04
  WARNING 04: minimum elevation drop used for Conduit C05
  WARNING 04: minimum elevation drop used for Conduit C06
  WARNING 04: minimum elevation drop used for Conduit C07
  WARNING 04: minimum elevation drop used for Conduit C08
  WARNING 04: minimum elevation drop used for Conduit C09
  WARNING 04: minimum elevation drop used for Conduit C10
  WARNING 04: minimum elevation drop used for Conduit C11
  WARNING 04: minimum elevation drop used for Conduit C12
  WARNING 04: minimum elevation drop used for Conduit C13
  WARNING 04: minimum elevation drop used for Conduit C14
  WARNING 04: minimum elevation drop used for Conduit C15
  WARNING 04: minimum elevation drop used for Conduit C16
  WARNING 04: minimum elevation drop used for Conduit C17
  WARNING 04: minimum elevation drop used for Conduit C18
  WARNING 04: minimum elevation drop used for Conduit C19
  WARNING 04: minimum elevation drop used for Conduit C20
  WARNING 04: minimum elevation drop used for Conduit C21
  WARNING 04: minimum elevation drop used for Conduit C22
  WARNING 04: minimum elevation drop used for Conduit C47
  WARNING 04: minimum elevation drop used for Conduit Cout
  
  ****************
  Analysis Options
  ****************
  Flow Units ............... CMS
  Process Models:
    Rainfall/Runoff ........ YES
    RDII ................... NO
    Snowmelt ............... NO
    Groundwater ............ NO
    Flow Routing ........... YES
    Ponding Allowed ........ NO
    Water Quality .......... NO
  Infiltration Method ...... HORTON
  Flow Routing Method ...... DYNWAVE
  Surcharge Method ......... EXTRAN
  Starting Date ............ 07/31/2013 08:00:00
  Ending Date .............. 07/31/2013 09:40:00
  Antecedent Dry Days ...... 0.0
  Report Time Step ......... 00:10:00
  Wet Time Step ............ 00:05:00
  Dry Time Step ............ 01:00:00
  Routing Time Step ........ 300.00 sec
  Variable Time Step ....... YES
  Maximum Trials ........... 8
  Number of Threads ........ 1
  Head Tolerance ........... 0.001524 m
  
  
  *********************
  Rainfall File Summary
  *********************
  Station    First        Last         Recording   Periods    Periods    Periods
  ID         Date         Date         Frequency  w/Precip    Missing    Malfunc.
  -------------------------------------------------------------------------------
  54         07/31/2013   07/31/2013      10 min        11          0          0

  
  
  **************************        Volume         Depth
  Runoff Quantity Continuity     hectare-m            mm
  **************************     ---------       -------
  Total Precipitation ......       277.022      2770.327
  Evaporation Loss .........         0.000         0.000
  Infiltration Loss ........         0.000         0.000
  Surface Runoff ...........       264.125      2641.356
  Final Storage ............        16.138       161.387
  Continuity Error (%) .....        -1.170
  
  
  **************************        Volume        Volume
  Flow Routing Continuity        hectare-m      10^6 ltr
  **************************     ---------     ---------
  Dry Weather Inflow .......         0.000         0.000
  Wet Weather Inflow .......       252.018      2520.205
  Groundwater Inflow .......         0.000         0.000
  RDII Inflow ..............         0.000         0.000
  External Inflow ..........         0.000         0.000
  External Outflow .........         4.234        42.343
  Flooding Loss ............       244.766      2447.690
  Evaporation Loss .........         0.000         0.000
  Exfiltration Loss ........         0.000         0.000
  Initial Stored Volume ....         0.046         0.463
  Final Stored Volume ......         1.883        18.831
  Continuity Error (%) .....         0.468
  
  
  *************************
  Highest Continuity Errors
  *************************
  Node J3 (8.94%)
  Node J30 (8.51%)
  Node J17 (7.55%)
  Node J24 (2.58%)
  Node J18 (2.54%)
  
  
  ***************************
  Time-Step Critical Elements
  ***************************
  Link Cout (98.53%)
  
  
  ********************************
  Highest Flow Instability Indexes
  ********************************
  Link C15 (5)
  Link C31 (4)
  Link C32 (4)
  Link C38 (4)
  Link C39 (4)
  
  
  *********************************
  Most Frequent Nonconverging Nodes
  *********************************
  Node OF (2.46%)
  Node J11 (0.98%)
  Node J6 (0.98%)
  Node J4 (0.74%)
  Node J5 (0.74%)
  
  
  *************************
  Routing Time Step Summary
  *************************
  Minimum Time Step           :     4.92 sec
  Average Time Step           :    14.74 sec
  Maximum Time Step           :   300.00 sec
  % of Time in Steady State   :     0.00
  Average Iterations per Step :     2.24
  % of Steps Not Converging   :     2.46
  Time Step Frequencies       :
     300.000 - 83.462 sec      :     0.25 %
     83.462 - 23.220 sec      :     0.00 %
     23.220 -  6.460 sec      :    99.01 %
      6.460 -  1.797 sec      :     0.74 %
      1.797 -  0.500 sec      :     0.00 %
  
  
  ***************************
  Subcatchment Runoff Summary
  ***************************
  
  ------------------------------------------------------------------------------------------------------------------------------
                            Total      Total      Total      Total     Imperv       Perv      Total       Total     Peak  Runoff
                           Precip      Runon       Evap      Infil     Runoff     Runoff     Runoff      Runoff   Runoff   Coeff
  Subcatchment                 mm         mm         mm         mm         mm         mm         mm    10^6 ltr      CMS
  ------------------------------------------------------------------------------------------------------------------------------
  S1                      2770.33       0.00       0.00       0.00      27.44    2742.90    2770.34      698.85   265.94   1.000
  S2                      2770.33       0.00       0.00       0.00      25.21    2752.60    2777.81       21.58     8.19   1.003
  S3                      2770.33       0.00       0.00       0.00      25.21    2745.12    2770.33        5.73     2.18   1.000
  S4                      2770.33       0.00       0.00       0.00      25.21    2745.12    2770.33        5.68     2.16   1.000
  S5                      2770.33       0.00       0.00       0.00      25.21    2745.12    2770.33        8.28     3.15   1.000
  S6                      2770.33       0.00       0.00       0.00      25.21    2745.12    2770.33       22.83     8.69   1.000
  S7                      2770.33       0.00       0.00       0.00      25.21    2745.12    2770.33        4.29     1.63   1.000
  S8                      2770.33       0.00       0.00       0.00      25.21    2745.12    2770.33       13.49     5.13   1.000
  S9                      2770.33       0.00       0.00       0.00      25.21    2745.12    2770.33       16.68     6.35   1.000
  S10                     2770.33       0.00       0.00       0.00       0.00    2745.12    2745.12        3.87     1.47   0.991
  S11                     2770.33       0.00       0.00       0.00      25.21    2713.52    2738.73       40.07    15.35   0.989
  S12                     2770.33       0.00       0.00       0.00      25.21    2745.12    2770.33       24.05     9.15   1.000
  S13                     2770.33       0.00       0.00       0.00       0.00    2745.12    2745.12       23.17     8.82   0.991
  S14                     2770.33       0.00       0.00       0.00      23.27    2747.06    2770.33       22.25     8.47   1.000
  S15                     2770.33       0.00       0.00       0.00      23.27    2747.06    2770.33       20.78     7.91   1.000
  S16                     2770.33       0.00       0.00       0.00      21.33    2756.68    2778.01       49.06    18.62   1.003
  S17                     2770.33       0.00       0.00       0.00      21.33    2621.92    2643.25       90.00    34.35   0.954
  S18                     2770.33       0.00       0.00       0.00      21.33    2750.46    2771.79        3.58     1.36   1.001
  S19                     2770.33       0.00       0.00       0.00      21.33       0.00      21.33        0.05     0.02   0.008
  S20                     2770.33       0.00       0.00       0.00      21.33    2750.28    2771.61        2.83     1.08   1.000
  S21                     2770.33       0.00       0.00       0.00      21.33    2742.88    2764.22       45.83    17.46   0.998
  S22                     2770.33       0.00       0.00       0.00      21.33    2749.09    2770.42        0.91     0.35   1.000
  S23                     2770.33       0.00       0.00       0.00      21.33    2749.00    2770.33        1.08     0.41   1.000
  S24                     2770.33       0.00       0.00       0.00      21.33    2749.00    2770.33        1.36     0.52   1.000
  S25                     2770.33       0.00       0.00       0.00      21.33    2749.00    2770.33        1.63     0.62   1.000
  S26                     2770.33       0.00       0.00       0.00      21.33    2749.00    2770.33        1.91     0.73   1.000
  S27                     2770.33       0.00       0.00       0.00      21.33    2753.25    2774.58       23.06     8.76   1.002
  S28                     2770.33       0.00       0.00       0.00      21.33    2745.94    2767.27       24.57     9.36   0.999
  S29                     2770.33       0.00       0.00       0.00      21.33    2749.91    2771.24        2.55     0.97   1.000
  S30                     2770.33       0.00       0.00       0.00      21.33    2578.69    2600.02      165.62    62.32   0.939
  S31                     2770.33       0.00       0.00       0.00      22.17    2748.16    2770.33       37.54    14.28   1.000
  S32                     2770.33       0.00       0.00       0.00      22.16    2748.16    2770.33       11.55     4.40   1.000
  S33                     2770.33       0.00       0.00       0.00      26.04    2744.29    2770.33        8.62     3.28   1.000
  S34                     2770.33       0.00       0.00       0.00      26.04    2744.29    2770.33        9.11     3.47   1.000
  S35                     2770.33       0.00       0.00       0.00      25.21    2745.12    2770.33       11.14     4.24   1.000
  S36                     2770.33       0.00       0.00       0.00      25.21    2745.12    2770.33        4.57     1.74   1.000
  S37                     2770.33       0.00       0.00       0.00      25.21    2745.12    2770.33        9.97     3.80   1.000
  S38                     2770.33       0.00       0.00       0.00      25.21    2745.12    2770.33        0.44     0.17   1.000
  S39                     2770.33       0.00       0.00       0.00      25.21    2745.12    2770.33       11.36     4.32   1.000
  S40                     2770.33       0.00       0.00       0.00      25.21    2745.12    2770.33        3.91     1.49   1.000
  S41                     2770.33       0.00       0.00       0.00      25.21    2745.12    2770.33        6.29     2.39   1.000
  S42                     2770.33       0.00       0.00       0.00      25.21    2745.12    2770.33        8.75     3.33   1.000
  S43                     2770.33       0.00       0.00       0.00      25.21    2745.12    2770.33       19.95     7.59   1.000
  S44                     2770.33       0.00       0.00       0.00      25.21    2745.12    2770.33       14.46     5.50   1.000
  S45                     2770.33       0.00       0.00       0.00      25.21    2745.12    2770.33        1.47     0.56   1.000
  S46                     2770.33       0.00       0.00       0.00      25.21    2745.12    2770.33       13.41     5.10   1.000
  S47                     2770.33       0.00       0.00       0.00      25.21    2745.12    2770.33       27.09    10.31   1.000
  S48                     2770.33       0.00       0.00       0.00      25.21    2745.12    2770.33       31.30    11.91   1.000
  S49                     2770.33       0.00       0.00       0.00      25.21    2745.12    2770.33       19.03     7.24   1.000
  S50                     2770.33       0.00       0.00       0.00      25.21    2745.12    2770.33       15.68     5.97   1.000
  S51                     2770.33       0.00       0.00       0.00      25.21    2745.12    2770.33        9.25     3.52   1.000
  S52                     2770.33       0.00       0.00       0.00      25.21    2745.12    2770.33       24.52     9.33   1.000
  S53                     2770.33       0.00       0.00       0.00      25.21    2743.24    2768.45       33.72    12.83   0.999
  S54                     2770.33       0.00       0.00       0.00      25.21    2753.72    2778.93       12.70     4.82   1.003
  S55                     2770.33       0.00       0.00       0.00      25.21    2745.12    2770.33        1.05     0.40   1.000
  S56                     2770.33       0.00       0.00       0.00      25.21    2745.55    2770.76        1.05     0.40   1.000
  S57                     2770.33       0.00       0.00       0.00      25.21    2745.12    2770.33       14.32     5.45   1.000
  S58                     2770.33       0.00       0.00       0.00      25.21    2745.12    2770.33       18.40     7.00   1.000
  S59                     2770.33       0.00       0.00       0.00      25.21    2745.12    2770.33       17.87     6.80   1.000
  S60                     2770.33       0.00       0.00       0.00      21.33    2755.72    2777.05       10.91     4.14   1.002
  S61                     2770.33       0.00       0.00       0.00      21.33       0.00      21.33        0.07     0.03   0.008
  S62                     2770.33       0.00       0.00       0.00      21.33    2549.34    2570.67      137.76    51.12   0.928
  S63                     2770.33       0.00       0.00       0.00      21.33    2749.00    2770.33       26.04     9.91   1.000
  S64                     2770.33       0.00       0.00       0.00      21.33    2749.00    2770.33       70.51    26.83   1.000
  S65                     2770.33       0.00       0.00       0.00      21.33    2749.00    2770.33       11.25     4.28   1.000
  S66                     2770.33       0.00       0.00       0.00      21.33    2749.00    2770.33       18.15     6.91   1.000
  S67                     2770.33       0.00       0.00       0.00      21.33    2749.00    2770.33       33.91    12.90   1.000
  S68                     2770.33       0.00       0.00       0.00      21.33    2749.00    2770.33       39.75    15.13   1.000
  S69                     2770.33       0.00       0.00       0.00      21.33       0.00      21.33        0.53     0.20   0.008
  S70                     2770.33       0.00       0.00       0.00      21.33    2741.42    2762.75       72.30    27.56   0.997
  S71                     2770.33       0.00       0.00       0.00      25.21    2745.12    2770.33       40.75    15.51   1.000
  S72                     2770.33       0.00       0.00       0.00      21.33    2757.64    2778.97       13.78     5.23   1.003
  S73                     2770.33       0.00       0.00       0.00      21.34    2749.00    2770.33       58.07    22.10   1.000
  S74                     2770.33       0.00       0.00       0.00      21.33       0.00      21.33        0.14     0.05   0.008
  S75                     2770.33       0.00       0.00       0.00      21.33    2749.00    2770.33        1.86     0.71   1.000
  S76                     2770.33       0.00       0.00       0.00      21.33    2749.00    2770.33       36.60    13.93   1.000
  S77                     2770.33       0.00       0.00       0.00      21.33    2749.00    2770.33       29.61    11.27   1.000
  S78                     2770.33       0.00       0.00       0.00      21.33    2749.00    2770.33       21.47     8.17   1.000
  S79                     2770.33       0.00       0.00       0.00      25.21    2745.12    2770.33       18.81     7.16   1.000
  S80                     2770.33       0.00       0.00       0.00      21.33    2753.03    2774.36        7.66     2.91   1.001
  S81                     2770.33       0.00       0.00       0.00      21.33    2749.00    2770.33       31.33    11.92   1.000
  S82                     2770.33       0.00       0.00       0.00      21.33    2749.00    2770.33       30.58    11.64   1.000
  S83                     2770.33       0.00       0.00       0.00      21.33    2749.00    2770.33       19.67     7.48   1.000
  S84                     2770.33       0.00       0.00       0.00      25.21    2745.12    2770.33       12.85     4.89   1.000
  S85                     2770.33       0.00       0.00       0.00      25.21    2748.74    2773.95       34.29    13.03   1.001
  S86                     2770.33       0.00       0.00       0.00       0.00    2745.12    2745.12       31.76    12.09   0.991
  S87                     2770.33       0.00       0.00       0.00      25.21    2745.12    2770.33       34.41    13.09   1.000
  S88                     2770.33       0.00       0.00       0.00      25.21    2745.12    2770.33        6.21     2.36   1.000
  S89                     2770.33       0.00       0.00       0.00      25.21    2745.12    2770.33       28.01    10.66   1.000
  S90                     2770.33       0.00       0.00       0.00       0.00    2745.12    2745.12       13.48     5.13   0.991
  S91                     2770.33       0.00       0.00       0.00      25.21    2745.12    2770.33        4.57     1.74   1.000
  
  
  ******************
  Node Depth Summary
  ******************
  
  ---------------------------------------------------------------------------------
                                 Average  Maximum  Maximum  Time of Max    Reported
                                   Depth    Depth      HGL   Occurrence   Max Depth
  Node                 Type       Meters   Meters   Meters  days hr:min      Meters
  ---------------------------------------------------------------------------------
  J7                   JUNCTION     2.49     2.50     2.50     0  00:05        2.50
  J13                  JUNCTION     2.49     2.50     2.50     0  00:05        2.50
  J19                  JUNCTION     2.46     2.50     2.50     0  00:05        2.50
  J25                  JUNCTION     2.49     2.50     2.50     0  00:05        2.50
  J1                   JUNCTION     2.49     2.50     2.50     0  00:05        2.50
  J2                   JUNCTION     2.49     2.50     2.50     0  00:05        2.50
  J3                   JUNCTION     2.49     2.50     2.50     0  00:05        2.50
  J4                   JUNCTION     2.49     2.50     2.50     0  00:05        2.50
  J5                   JUNCTION     2.49     2.50     2.50     0  00:05        2.50
  J6                   JUNCTION     2.49     2.50     2.50     0  00:05        2.50
  J8                   JUNCTION     2.49     2.50     2.50     0  00:05        2.50
  J9                   JUNCTION     2.49     2.50     2.50     0  00:05        2.50
  J10                  JUNCTION     2.49     2.50     2.50     0  00:05        2.50
  J11                  JUNCTION     2.49     2.50     2.50     0  00:05        2.50
  J12                  JUNCTION     2.49     2.50     2.50     0  00:05        2.50
  J14                  JUNCTION     2.49     2.50     2.50     0  00:05        2.50
  J15                  JUNCTION     2.49     2.50     2.50     0  00:05        2.50
  J16                  JUNCTION     2.49     2.50     2.50     0  00:05        2.50
  J17                  JUNCTION     2.49     2.50     2.50     0  00:05        2.50
  J18                  JUNCTION     2.49     2.50     2.50     0  00:05        2.50
  J20                  JUNCTION     2.49     2.50     2.50     0  00:05        2.50
  J21                  JUNCTION     2.49     2.50     2.50     0  00:05        2.50
  J22                  JUNCTION     2.49     2.50     2.50     0  00:05        2.50
  J23                  JUNCTION     2.49     2.50     2.50     0  00:05        2.50
  J24                  JUNCTION     2.49     2.50     2.50     0  00:05        2.50
  J26                  JUNCTION     2.49     2.50     2.50     0  00:05        2.50
  J27                  JUNCTION     2.49     2.50     2.50     0  00:05        2.50
  J29                  JUNCTION     2.49     2.50     2.50     0  00:05        2.50
  J30                  JUNCTION     2.49     2.50     2.50     0  00:05        2.50
  J31                  JUNCTION     2.49     2.50     2.50     0  00:05        2.50
  J33                  JUNCTION     2.49     2.50     2.50     0  00:05        2.50
  J32                  JUNCTION     2.49     2.50     2.50     0  00:05        2.50
  J28                  JUNCTION     2.49     2.50     2.50     0  00:05        2.50
  OF                   OUTFALL      1.35     1.41     1.41     0  00:05        1.37
  
  
  *******************
  Node Inflow Summary
  *******************
  
  -------------------------------------------------------------------------------------------------
                                  Maximum  Maximum                  Lateral       Total        Flow
                                  Lateral    Total  Time of Max      Inflow      Inflow     Balance
                                   Inflow   Inflow   Occurrence      Volume      Volume       Error
  Node                 Type           CMS      CMS  days hr:min    10^6 ltr    10^6 ltr     Percent
  -------------------------------------------------------------------------------------------------
  J7                   JUNCTION    68.582   68.582     0  00:30         175         175       0.598
  J13                  JUNCTION     6.014    6.243     0  00:30        15.1        17.2       1.400
  J19                  JUNCTION   285.022  285.022     0  00:30         715         717       1.266
  J25                  JUNCTION    34.346   34.764     0  00:30        85.9          88       0.791
  J1                   JUNCTION    23.925   23.925     0  00:25          60        60.1       1.303
  J2                   JUNCTION    17.974   18.192     0  00:25        45.1        46.1       1.150
  J3                   JUNCTION     0.801    9.633     0  00:05        2.01        7.74       9.823
  J4                   JUNCTION    52.047   52.557     0  00:25         130         133       1.114
  J5                   JUNCTION    43.033   43.171     0  00:25         108         110       0.995
  J6                   JUNCTION    18.828   18.828     0  00:30        47.2        50.7       1.108
  J8                   JUNCTION    28.970   28.970     0  00:25        72.6        72.8       1.376
  J9                   JUNCTION    13.027   13.176     0  00:30        32.7        33.6       0.993
  J10                  JUNCTION    19.440   19.440     0  00:30        48.7        49.4       0.901
  J11                  JUNCTION    20.885   21.349     0  00:25        52.4        55.3       1.190
  J12                  JUNCTION    22.096   22.307     0  00:25        55.4        57.7       1.256
  J14                  JUNCTION    18.723   18.723     0  00:30        46.9        47.1       1.380
  J15                  JUNCTION    26.791   26.791     0  00:30        67.1        67.3       1.146
  J16                  JUNCTION    15.508   16.264     0  00:25        38.9          43       1.272
  J17                  JUNCTION     0.202    5.958     0  00:05       0.506        5.67       8.168
  J18                  JUNCTION     0.706    1.491     0  00:05        1.77        3.86       2.609
  J20                  JUNCTION    52.308   52.308     0  00:30         131         131       1.270
  J21                  JUNCTION    17.282   17.282     0  00:30        43.3        43.5       1.373
  J22                  JUNCTION    35.465   35.465     0  00:30        88.8        88.8       1.035
  J23                  JUNCTION    18.616   18.820     0  00:30        46.8          48       1.263
  J24                  JUNCTION     2.455    3.385     0  00:05        6.16        7.94       2.648
  J26                  JUNCTION    15.265   15.265     0  00:30        38.3        38.3       1.384
  J27                  JUNCTION    13.389   13.832     0  00:25        33.6        35.7       1.413
  J29                  JUNCTION    21.959   22.364     0  00:25          55        56.8       1.333
  J30                  JUNCTION     0.000    5.861     0  00:05           0        4.93       9.303
  J31                  JUNCTION    62.316   62.534     0  00:30         158         160       0.540
  J33                  JUNCTION    21.606   21.606     0  00:30        54.2        54.2       1.371
  J32                  JUNCTION     9.857    9.857     0  00:30        24.7        24.9       1.242
  J28                  JUNCTION    15.761   16.259     0  00:25        39.5          42       1.237
  OF                   OUTFALL      0.000    7.967     0  00:05           0        42.3       0.000
  
  
  **********************
  Node Surcharge Summary
  **********************
  
  Surcharging occurs when water rises above the top of the highest conduit.
  ---------------------------------------------------------------------
                                               Max. Height   Min. Depth
                                   Hours       Above Crown    Below Rim
  Node                 Type      Surcharged         Meters       Meters
  ---------------------------------------------------------------------
  J7                   JUNCTION        1.67          0.850        0.000
  J13                  JUNCTION        1.67          0.850        0.000
  J19                  JUNCTION        1.65          0.850        0.000
  J25                  JUNCTION        1.67          0.850        0.000
  J1                   JUNCTION        1.67          0.850        0.000
  J2                   JUNCTION        1.67          0.850        0.000
  J3                   JUNCTION        1.67          0.850        0.000
  J4                   JUNCTION        1.67          0.850        0.000
  J5                   JUNCTION        1.67          0.850        0.000
  J6                   JUNCTION        1.67          0.850        0.000
  J8                   JUNCTION        1.67          0.850        0.000
  J9                   JUNCTION        1.67          0.850        0.000
  J10                  JUNCTION        1.67          0.850        0.000
  J11                  JUNCTION        1.67          0.850        0.000
  J12                  JUNCTION        1.67          0.850        0.000
  J14                  JUNCTION        1.67          0.850        0.000
  J15                  JUNCTION        1.67          0.850        0.000
  J16                  JUNCTION        1.67          0.850        0.000
  J17                  JUNCTION        1.67          0.850        0.000
  J18                  JUNCTION        1.67          0.850        0.000
  J20                  JUNCTION        1.67          0.850        0.000
  J21                  JUNCTION        1.67          0.850        0.000
  J22                  JUNCTION        1.67          0.850        0.000
  J23                  JUNCTION        1.67          0.850        0.000
  J24                  JUNCTION        1.67          0.850        0.000
  J26                  JUNCTION        1.67          0.850        0.000
  J27                  JUNCTION        1.67          0.850        0.000
  J29                  JUNCTION        1.67          0.850        0.000
  J30                  JUNCTION        1.67          0.850        0.000
  J31                  JUNCTION        1.67          0.850        0.000
  J33                  JUNCTION        1.67          0.850        0.000
  J32                  JUNCTION        1.67          0.850        0.000
  J28                  JUNCTION        1.67          0.850        0.000
  
  
  *********************
  Node Flooding Summary
  *********************
  
  Flooding refers to all water that overflows a node, whether it ponds or not.
  --------------------------------------------------------------------------
                                                             Total   Maximum
                                 Maximum   Time of Max       Flood    Ponded
                        Hours       Rate    Occurrence      Volume     Depth
  Node                 Flooded       CMS   days hr:min    10^6 ltr    Meters
  --------------------------------------------------------------------------
  J7                      1.67    68.120      0  00:30     172.327     0.000
  J13                     1.58     6.243      0  00:30      16.082     0.000
  J19                     1.57   277.668      0  00:30     674.785     0.000
  J25                     1.67    34.688      0  00:30      87.490     0.000
  J1                      1.59    23.738      0  00:30      59.038     0.000
  J2                      1.59    17.747      0  00:30      43.750     0.000
  J3                      1.59     9.059      0  00:05       7.401     0.000
  J4                      1.58    52.035      0  00:30     129.414     0.000
  J5                      1.58    42.292      0  00:30     103.731     0.000
  J6                      1.58    18.355      0  00:30      46.036     0.000
  J8                      1.60    28.919      0  00:30      72.392     0.000
  J9                      1.60    12.959      0  00:30      31.814     0.000
  J10                     1.58    18.757      0  00:30      45.155     0.000
  J11                     1.58    21.056      0  00:25      52.788     0.000
  J12                     1.58    22.061      0  00:30      55.318     0.000
  J14                     1.60    18.723      0  00:30      46.931     0.000
  J15                     1.64    26.524      0  00:30      65.377     0.000
  J16                     1.59    15.963      0  00:25      40.493     0.000
  J17                     1.59     5.726      0  00:05       4.917     0.000
  J18                     1.58     1.294      0  00:05       2.603     0.000
  J20                     1.67    52.294      0  00:30     130.598     0.000
  J21                     1.64    17.282      0  00:30      43.328     0.000
  J22                     1.67    35.039      0  00:30      85.962     0.000
  J23                     1.65    18.522      0  00:30      46.236     0.000
  J24                     1.67     2.606      0  00:05       6.885     0.000
  J26                     1.60    15.265      0  00:30      38.262     0.000
  J27                     1.59    13.590      0  00:25      34.441     0.000
  J29                     1.58    21.951      0  00:30      54.966     0.000
  J30                     1.58     5.649      0  00:05       4.402     0.000
  J31                     1.67    62.125      0  00:30     156.712     0.000
  J33                     1.60    21.606      0  00:30      54.124     0.000
  J32                     1.59     9.690      0  00:30      23.973     0.000
  J28                     1.59    15.968      0  00:25      40.138     0.000
  
  
  ***********************
  Outfall Loading Summary
  ***********************
  
  -----------------------------------------------------------
                         Flow       Avg       Max       Total
                         Freq      Flow      Flow      Volume
  Outfall Node           Pcnt       CMS       CMS    10^6 ltr
  -----------------------------------------------------------
  OF                   100.00     7.222     7.967      42.343
  -----------------------------------------------------------
  System               100.00     7.222     7.967      42.343
  
  
  ********************
  Link Flow Summary
  ********************
  
  -----------------------------------------------------------------------------
                                 Maximum  Time of Max   Maximum    Max/    Max/
                                  |Flow|   Occurrence   |Veloc|    Full    Full
  Link                 Type          CMS  days hr:min     m/sec    Flow   Depth
  -----------------------------------------------------------------------------
  P1                   PUMP        0.000     0  00:00                          
  C23                  CONDUIT     0.209     0  01:20      0.10    1.82    1.00
  C24                  CONDUIT     1.033     0  00:05      0.48    8.95    1.00
  C25                  CONDUIT     0.415     0  01:16      0.19    3.32    1.00
  C26                  CONDUIT     0.884     0  00:05      0.41    6.91    1.00
  C27                  CONDUIT     0.062     0  00:05      0.03    0.51    1.00
  C28                  CONDUIT     1.127     0  00:05      0.53    7.77    1.00
  C29                  CONDUIT     0.643     0  00:05      0.30    4.53    1.00
  C30                  CONDUIT     1.148     0  00:05      0.54   10.09    1.00
  C31                  CONDUIT     0.697     0  00:05      0.33    6.10    1.00
  C32                  CONDUIT     2.372     0  00:05      1.11   15.33    1.00
  C33                  CONDUIT     6.051     0  00:05      2.83   35.40    1.00
  C34                  CONDUIT     1.106     0  00:05      0.52    8.80    1.00
  C35                  CONDUIT     1.673     0  01:20      0.78   17.79    1.00
  C36                  CONDUIT     1.725     0  01:20      0.81   16.28    1.00
  C37                  CONDUIT     0.930     0  00:05      0.43    6.38    1.00
  C38                  CONDUIT     0.985     0  00:05      0.46    6.87    1.00
  C39                  CONDUIT     0.889     0  00:05      0.42    5.64    1.00
  C40                  CONDUIT     0.046     0  01:20      0.02    0.33    1.00
  C41                  CONDUIT     0.048     0  01:20      0.02    0.37    1.00
  C43                  CONDUIT     0.158     0  01:16      0.07    1.21    1.00
  C44                  CONDUIT     0.614     0  00:05      0.29    5.24    1.00
  C45                  CONDUIT     2.681     0  00:05      1.25   23.00    1.00
  C46                  CONDUIT     2.578     0  00:05      1.21   21.36    1.00
  C48                  CONDUIT     5.035     0  01:20      2.35   39.76    1.00
  C42                  CONDUIT     0.603     0  00:05      0.28    4.78    1.00
  C50                  CONDUIT     0.451     0  00:05      0.21    4.36    1.00
  C49                  CONDUIT     0.524     0  00:05      0.24    4.57    1.00
  C01                  CONDUIT     0.059     0  01:20      0.03    0.48    1.00
  C02                  CONDUIT     0.063     0  01:20      0.03    0.50    1.00
  C03                  CONDUIT     0.891     0  00:05      0.42    7.12    1.00
  C04                  CONDUIT     0.580     0  00:05      0.27    4.56    1.00
  C05                  CONDUIT     0.700     0  00:05      0.33    5.58    1.00
  C06                  CONDUIT     0.175     0  01:20      0.08    1.53    1.00
  C07                  CONDUIT     0.126     0  01:20      0.06    1.11    1.00
  C08                  CONDUIT     0.054     0  01:18      0.03    0.44    1.00
  C09                  CONDUIT     1.017     0  00:05      0.48    8.90    1.00
  C10                  CONDUIT     1.170     0  00:05      0.55    9.33    1.00
  C11                  CONDUIT     0.176     0  01:20      0.08    1.55    1.00
  C12                  CONDUIT     0.431     0  01:20      0.20    3.71    1.00
  C13                  CONDUIT     0.598     0  01:20      0.28    5.20    1.00
  C14                  CONDUIT     3.055     0  00:05      1.43   24.27    1.00
  C15                  CONDUIT     0.289     0  01:19      0.14    2.30    1.00
  C16                  CONDUIT     2.399     0  00:05      1.12   21.06    1.00
  C17                  CONDUIT     2.500     0  00:05      1.17   22.07    1.00
  C18                  CONDUIT     0.134     0  01:20      0.06    1.19    1.00
  C19                  CONDUIT     1.549     0  01:20      0.72   12.31    1.00
  C20                  CONDUIT     1.207     0  00:05      0.56   10.75    1.00
  C21                  CONDUIT     1.613     0  01:20      0.75   15.24    1.00
  C22                  CONDUIT     0.866     0  01:20      0.41    6.84    1.00
  C47                  CONDUIT     1.265     0  00:05      0.59   13.00    1.00
  Cout                 CONDUIT     7.967     0  00:05      3.85   62.91    0.93
  
  
  ***************************
  Flow Classification Summary
  ***************************
  
  -------------------------------------------------------------------------------------
                      Adjusted    ---------- Fraction of Time in Flow Class ---------- 
                       /Actual         Up    Down  Sub   Sup   Up    Down  Norm  Inlet 
  Conduit               Length    Dry  Dry   Dry   Crit  Crit  Crit  Crit  Ltd   Ctrl  
  -------------------------------------------------------------------------------------
  C23                     1.00   0.00  0.00  0.00  1.00  0.00  0.00  0.00  0.00  0.00
  C24                     1.00   0.00  0.00  0.00  1.00  0.00  0.00  0.00  0.00  0.00
  C25                     1.00   0.00  0.00  0.00  1.00  0.00  0.00  0.00  0.00  0.00
  C26                     1.00   0.00  0.00  0.00  1.00  0.00  0.00  0.00  0.00  0.00
  C27                     1.00   0.00  0.00  0.00  1.00  0.00  0.00  0.00  0.00  0.00
  C28                     1.00   0.00  0.00  0.00  1.00  0.00  0.00  0.00  0.00  0.00
  C29                     1.00   0.00  0.00  0.00  1.00  0.00  0.00  0.00  0.00  0.00
  C30                     1.00   0.00  0.00  0.00  1.00  0.00  0.00  0.00  0.00  0.00
  C31                     1.00   0.00  0.00  0.00  1.00  0.00  0.00  0.00  0.00  0.00
  C32                     1.00   0.00  0.00  0.00  1.00  0.00  0.00  0.00  0.00  0.00
  C33                     1.00   0.00  0.00  0.00  1.00  0.00  0.00  0.00  0.00  0.00
  C34                     1.00   0.00  0.00  0.00  1.00  0.00  0.00  0.00  0.00  0.00
  C35                     1.00   0.00  0.00  0.00  1.00  0.00  0.00  0.00  0.00  0.00
  C36                     1.00   0.00  0.00  0.00  1.00  0.00  0.00  0.00  0.00  0.00
  C37                     1.00   0.00  0.00  0.00  1.00  0.00  0.00  0.00  0.00  0.00
  C38                     1.00   0.00  0.00  0.00  1.00  0.00  0.00  0.00  0.00  0.00
  C39                     1.00   0.00  0.00  0.00  1.00  0.00  0.00  0.00  0.00  0.00
  C40                     1.00   0.00  0.00  0.00  1.00  0.00  0.00  0.00  0.00  0.00
  C41                     1.00   0.00  0.00  0.00  1.00  0.00  0.00  0.00  0.00  0.00
  C43                     1.00   0.00  0.00  0.00  1.00  0.00  0.00  0.00  0.00  0.00
  C44                     1.00   0.00  0.00  0.00  1.00  0.00  0.00  0.00  0.00  0.00
  C45                     1.00   0.00  0.00  0.00  1.00  0.00  0.00  0.00  0.00  0.00
  C46                     1.00   0.00  0.00  0.00  1.00  0.00  0.00  0.00  0.00  0.00
  C48                     1.00   0.00  0.00  0.00  1.00  0.00  0.00  0.00  0.00  0.00
  C42                     1.00   0.00  0.00  0.00  1.00  0.00  0.00  0.00  0.00  0.00
  C50                     1.00   0.00  0.00  0.00  1.00  0.00  0.00  0.00  0.00  0.00
  C49                     1.00   0.00  0.00  0.00  1.00  0.00  0.00  0.00  0.00  0.00
  C01                     1.00   0.00  0.00  0.00  1.00  0.00  0.00  0.00  0.00  0.00
  C02                     1.00   0.00  0.00  0.00  1.00  0.00  0.00  0.00  0.00  0.00
  C03                     1.00   0.00  0.00  0.00  1.00  0.00  0.00  0.00  0.00  0.00
  C04                     1.00   0.00  0.00  0.00  1.00  0.00  0.00  0.00  0.00  0.00
  C05                     1.00   0.00  0.00  0.00  1.00  0.00  0.00  0.00  0.00  0.00
  C06                     1.00   0.00  0.00  0.00  1.00  0.00  0.00  0.00  0.00  0.00
  C07                     1.00   0.00  0.00  0.00  1.00  0.00  0.00  0.00  0.00  0.00
  C08                     1.00   0.00  0.00  0.00  1.00  0.00  0.00  0.00  0.00  0.00
  C09                     1.00   0.00  0.00  0.00  1.00  0.00  0.00  0.00  0.00  0.00
  C10                     1.00   0.00  0.00  0.00  1.00  0.00  0.00  0.00  0.00  0.00
  C11                     1.00   0.00  0.00  0.00  1.00  0.00  0.00  0.00  0.00  0.00
  C12                     1.00   0.00  0.00  0.00  1.00  0.00  0.00  0.00  0.00  0.00
  C13                     1.00   0.00  0.00  0.00  1.00  0.00  0.00  0.00  0.00  0.00
  C14                     1.00   0.00  0.00  0.00  1.00  0.00  0.00  0.00  0.00  0.00
  C15                     1.00   0.00  0.00  0.00  1.00  0.00  0.00  0.00  0.00  0.00
  C16                     1.00   0.00  0.00  0.00  1.00  0.00  0.00  0.00  0.00  0.00
  C17                     1.00   0.00  0.00  0.00  1.00  0.00  0.00  0.00  0.00  0.00
  C18                     1.00   0.00  0.00  0.00  1.00  0.00  0.00  0.00  0.00  0.00
  C19                     1.00   0.00  0.00  0.00  1.00  0.00  0.00  0.00  0.00  0.00
  C20                     1.00   0.00  0.00  0.00  1.00  0.00  0.00  0.00  0.00  0.00
  C21                     1.00   0.00  0.00  0.00  1.00  0.00  0.00  0.00  0.00  0.00
  C22                     1.00   0.00  0.00  0.00  1.00  0.00  0.00  0.00  0.00  0.00
  C47                     1.00   0.00  0.00  0.00  1.00  0.00  0.00  0.00  0.00  0.00
  Cout                    1.00   0.00  0.00  0.00  1.00  0.00  0.00  0.00  0.00  0.00
  
  
  *************************
  Conduit Surcharge Summary
  *************************
  
  ----------------------------------------------------------------------------
                                                           Hours        Hours 
                         --------- Hours Full --------   Above Full   Capacity
  Conduit                Both Ends  Upstream  Dnstream   Normal Flow   Limited
  ----------------------------------------------------------------------------
  C23                         1.67      1.67      1.67      0.36         0.06
  C24                         1.67      1.67      1.67      1.33         0.07
  C25                         1.67      1.67      1.67      0.41         0.05
  C26                         1.67      1.67      1.67      1.23         0.08
  C27                         1.67      1.67      1.67      0.01         0.04
  C28                         1.67      1.67      1.67      1.02         0.05
  C29                         1.67      1.67      1.67      0.69         0.04
  C30                         1.67      1.67      1.67      0.95         0.05
  C31                         1.67      1.67      1.67      0.89         0.05
  C32                         1.67      1.67      1.67      0.97         0.05
  C33                         1.67      1.67      1.67      1.04         0.05
  C34                         1.67      1.67      1.67      1.27         0.07
  C35                         1.67      1.67      1.67      1.21         0.09
  C36                         1.67      1.67      1.67      1.35         0.09
  C37                         1.67      1.67      1.67      0.72         0.03
  C38                         1.67      1.67      1.67      0.74         0.04
  C39                         1.67      1.67      1.67      0.66         0.03
  C40                         1.67      1.67      1.67      0.01         0.04
  C41                         1.67      1.67      1.67      0.01         0.05
  C43                         1.67      1.67      1.67      0.02         0.03
  C44                         1.67      1.67      1.67      0.84         0.02
  C45                         1.67      1.67      1.67      1.40         0.01
  C46                         1.67      1.67      1.67      1.36         0.01
  C48                         1.64      1.67      1.64      0.42         0.07
  C42                         1.67      1.67      1.67      0.78         0.02
  C50                         1.67      1.67      1.67      0.97         0.04
  C49                         1.67      1.67      1.67      0.83         0.04
  C01                         1.67      1.67      1.67      0.01         0.03
  C02                         1.67      1.67      1.67      0.01         0.01
  C03                         1.67      1.67      1.67      0.99         0.02
  C04                         1.67      1.67      1.67      0.76         0.01
  C05                         1.67      1.67      1.67      0.80         0.01
  C06                         1.67      1.67      1.67      0.34         0.06
  C07                         1.67      1.67      1.67      0.10         0.03
  C08                         1.67      1.67      1.67      0.01         0.03
  C09                         1.67      1.67      1.67      1.35         0.07
  C10                         1.67      1.67      1.67      1.27         0.05
  C11                         1.67      1.67      1.67      0.35         0.06
  C12                         1.67      1.67      1.67      0.90         0.07
  C13                         1.67      1.67      1.67      0.41         0.08
  C14                         1.67      1.67      1.67      1.34         0.06
  C15                         1.67      1.67      1.67      0.41         0.07
  C16                         1.67      1.67      1.67      1.01         0.01
  C17                         1.67      1.67      1.67      1.42         0.08
  C18                         1.67      1.67      1.67      0.18         0.07
  C19                         1.67      1.67      1.67      0.41         0.09
  C20                         1.67      1.67      1.67      1.39         0.09
  C21                         1.67      1.67      1.67      1.29         0.09
  C22                         1.67      1.67      1.67      0.42         0.09
  C47                         1.67      1.67      1.67      1.54         0.01
  Cout                        0.01      1.64      0.01      1.67         0.01
  
  
  ***************
  Pumping Summary
  ***************
  
  ---------------------------------------------------------------------------------------------------------
                                                  Min       Avg       Max     Total     Power    % Time Off
                        Percent   Number of      Flow      Flow      Flow    Volume     Usage    Pump Curve
  Pump                 Utilized   Start-Ups       CMS       CMS       CMS  10^6 ltr     Kw-hr    Low   High
  ---------------------------------------------------------------------------------------------------------
  P1                       0.00           0      0.00      0.00      0.00     0.000      0.00    0.0    0.0
  

  Analysis begun on:  Thu Oct 31 20:15:16 2024
  Analysis ended on:  Thu Oct 31 20:15:16 2024
  Total elapsed time: < 1 sec