
  EPA STORM WATER MANAGEMENT MODEL - VERSION 5.2 (Build 5.2.4)
  PYSWMM TOOLKIT API - VERSION v1.0 (2023-11-27)
  ------------------------------------------------------------

  WARNING 04: minimum elevation drop used for Conduit C23
  WARNING 04: minimum elevation drop used for Conduit C24
  WARNING 04: minimum elevation drop used for Conduit C25
  WARNING 04: minimum elevation drop used for Conduit C26
  WARNING 04: minimum elevation drop used for Conduit C27
  WARNING 04: minimum elevation drop used for Conduit C28
  WARNING 04: minimum elevation drop used for Conduit C29
  WARNING 04: minimum elevation drop used for Conduit C30
  WARNING 04: minimum elevation drop used for Conduit C31
  WARNING 04: minimum elevation drop used for Conduit C32
  WARNING 04: minimum elevation drop used for Conduit C33
  WARNING 04: minimum elevation drop used for Conduit C34
  WARNING 04: minimum elevation drop used for Conduit C35
  WARNING 04: minimum elevation drop used for Conduit C36
  WARNING 04: minimum elevation drop used for Conduit C37
  WARNING 04: minimum elevation drop used for Conduit C38
  WARNING 04: minimum elevation drop used for Conduit C39
  WARNING 04: minimum elevation drop used for Conduit C40
  WARNING 04: minimum elevation drop used for Conduit C41
  WARNING 04: minimum elevation drop used for Conduit C43
  WARNING 04: minimum elevation drop used for Conduit C44
  WARNING 04: minimum elevation drop used for Conduit C45
  WARNING 04: minimum elevation drop used for Conduit C46
  WARNING 04: minimum elevation drop used for Conduit C48
  WARNING 04: minimum elevation drop used for Conduit C42
  WARNING 04: minimum elevation drop used for Conduit C50
  WARNING 04: minimum elevation drop used for Conduit C49
  WARNING 04: minimum elevation drop used for Conduit C01
  WARNING 04: minimum elevation drop used for Conduit C02
  WARNING 04: minimum elevation drop used for Conduit C03
  WARNING 04: minimum elevation drop used for Conduit C04
  WARNING 04: minimum elevation drop used for Conduit C05
  WARNING 04: minimum elevation drop used for Conduit C06
  WARNING 04: minimum elevation drop used for Conduit C07
  WARNING 04: minimum elevation drop used for Conduit C08
  WARNING 04: minimum elevation drop used for Conduit C09
  WARNING 04: minimum elevation drop used for Conduit C10
  WARNING 04: minimum elevation drop used for Conduit C11
  WARNING 04: minimum elevation drop used for Conduit C12
  WARNING 04: minimum elevation drop used for Conduit C13
  WARNING 04: minimum elevation drop used for Conduit C14
  WARNING 04: minimum elevation drop used for Conduit C15
  WARNING 04: minimum elevation drop used for Conduit C16
  WARNING 04: minimum elevation drop used for Conduit C17
  WARNING 04: minimum elevation drop used for Conduit C18
  WARNING 04: minimum elevation drop used for Conduit C19
  WARNING 04: minimum elevation drop used for Conduit C20
  WARNING 04: minimum elevation drop used for Conduit C21
  WARNING 04: minimum elevation drop used for Conduit C22
  WARNING 04: minimum elevation drop used for Conduit C47
  WARNING 04: minimum elevation drop used for Conduit Cout
  
  ****************
  Analysis Options
  ****************
  Flow Units ............... CMS
  Process Models:
    Rainfall/Runoff ........ YES
    RDII ................... NO
    Snowmelt ............... NO
    Groundwater ............ NO
    Flow Routing ........... YES
    Ponding Allowed ........ NO
    Water Quality .......... NO
  Infiltration Method ...... HORTON
  Flow Routing Method ...... DYNWAVE
  Surcharge Method ......... EXTRAN
  Starting Date ............ 09/18/2022 12:00:00
  Ending Date .............. 09/18/2022 12:40:00
  Antecedent Dry Days ...... 0.0
  Report Time Step ......... 00:10:00
  Wet Time Step ............ 00:05:00
  Dry Time Step ............ 01:00:00
  Routing Time Step ........ 300.00 sec
  Variable Time Step ....... YES
  Maximum Trials ........... 8
  Number of Threads ........ 1
  Head Tolerance ........... 0.001524 m
  
  
  *********************
  Rainfall File Summary
  *********************
  Station    First        Last         Recording   Periods    Periods    Periods
  ID         Date         Date         Frequency  w/Precip    Missing    Malfunc.
  -------------------------------------------------------------------------------
  141        09/18/2022   09/18/2022      10 min         5          0          0

  
  
  **************************        Volume         Depth
  Runoff Quantity Continuity     hectare-m            mm
  **************************     ---------       -------
  Total Precipitation ......       126.995      1270.000
  Evaporation Loss .........         0.000         0.000
  Infiltration Loss ........         0.000         0.000
  Surface Runoff ...........       119.408      1194.127
  Final Storage ............        10.501       105.015
  Continuity Error (%) .....        -2.295
  
  
  **************************        Volume        Volume
  Flow Routing Continuity        hectare-m      10^6 ltr
  **************************     ---------     ---------
  Dry Weather Inflow .......         0.000         0.000
  Wet Weather Inflow .......       108.639      1086.400
  Groundwater Inflow .......         0.000         0.000
  RDII Inflow ..............         0.000         0.000
  External Inflow ..........         0.000         0.000
  External Outflow .........         1.664        16.642
  Flooding Loss ............       101.955      1019.563
  Evaporation Loss .........         0.000         0.000
  Exfiltration Loss ........         0.000         0.000
  Initial Stored Volume ....         0.046         0.463
  Final Stored Volume ......         1.883        18.831
  Continuity Error (%) .....         2.928
  
  
  *************************
  Highest Continuity Errors
  *************************
  Node J30 (19.68%)
  Node J3 (18.12%)
  Node J17 (13.95%)
  Node J18 (13.21%)
  Node J24 (7.66%)
  
  
  ***************************
  Time-Step Critical Elements
  ***************************
  Link Cout (98.69%)
  
  
  ********************************
  Highest Flow Instability Indexes
  ********************************
  Link C24 (2)
  Link C31 (2)
  Link C33 (2)
  Link C34 (2)
  Link C46 (2)
  
  
  *********************************
  Most Frequent Nonconverging Nodes
  *********************************
  Convergence obtained at all time steps.
  
  
  *************************
  Routing Time Step Summary
  *************************
  Minimum Time Step           :     4.91 sec
  Average Time Step           :    15.69 sec
  Maximum Time Step           :   300.00 sec
  % of Time in Steady State   :     0.00
  Average Iterations per Step :     2.03
  % of Steps Not Converging   :     0.00
  Time Step Frequencies       :
     300.000 - 83.462 sec      :     0.66 %
     83.462 - 23.220 sec      :     0.00 %
     23.220 -  6.460 sec      :    98.68 %
      6.460 -  1.797 sec      :     0.66 %
      1.797 -  0.500 sec      :     0.00 %
  
  
  ***************************
  Subcatchment Runoff Summary
  ***************************
  
  ------------------------------------------------------------------------------------------------------------------------------
                            Total      Total      Total      Total     Imperv       Perv      Total       Total     Peak  Runoff
                           Precip      Runon       Evap      Infil     Runoff     Runoff     Runoff      Runoff   Runoff   Coeff
  Subcatchment                 mm         mm         mm         mm         mm         mm         mm    10^6 ltr      CMS
  ------------------------------------------------------------------------------------------------------------------------------
  S1                      1270.00       0.00       0.00       0.00      12.57    1257.43    1270.00      320.37   186.90   1.000
  S2                      1270.00       0.00       0.00       0.00      11.56    1261.03    1272.58        9.89     5.76   1.002
  S3                      1270.00       0.00       0.00       0.00      11.56    1258.44    1270.00        2.63     1.53   1.000
  S4                      1270.00       0.00       0.00       0.00      11.56    1258.44    1270.00        2.60     1.52   1.000
  S5                      1270.00       0.00       0.00       0.00      11.56    1258.44    1270.00        3.80     2.22   1.000
  S6                      1270.00       0.00       0.00       0.00      11.56    1258.44    1270.00       10.46     6.11   1.000
  S7                      1270.00       0.00       0.00       0.00      11.56    1258.44    1270.00        1.97     1.15   1.000
  S8                      1270.00       0.00       0.00       0.00      11.56    1258.44    1270.00        6.18     3.61   1.000
  S9                      1270.00       0.00       0.00       0.00      11.56    1258.44    1270.00        7.65     4.46   1.000
  S10                     1270.00       0.00       0.00       0.00       0.00    1258.44    1258.44        1.77     1.04   0.991
  S11                     1270.00       0.00       0.00       0.00      11.56    1217.51    1229.07       17.98    10.82   0.968
  S12                     1270.00       0.00       0.00       0.00      11.56    1258.44    1270.00       11.02     6.43   1.000
  S13                     1270.00       0.00       0.00       0.00       0.00    1258.44    1258.44       10.62     6.20   0.991
  S14                     1270.00       0.00       0.00       0.00      10.67    1259.33    1270.00       10.20     5.95   1.000
  S15                     1270.00       0.00       0.00       0.00      10.67    1259.33    1270.00        9.53     5.56   1.000
  S16                     1270.00       0.00       0.00       0.00       9.78    1260.35    1270.13       22.43    13.08   1.000
  S17                     1270.00       0.00       0.00       0.00       9.78    1125.32    1135.10       38.65    24.76   0.894
  S18                     1270.00       0.00       0.00       0.00       9.78    1260.26    1270.03        1.64     0.96   1.000
  S19                     1270.00       0.00       0.00       0.00       9.78       0.00       9.78        0.02     0.01   0.008
  S20                     1270.00       0.00       0.00       0.00       9.78    1260.19    1269.97        1.30     0.76   1.000
  S21                     1270.00       0.00       0.00       0.00       9.78    1244.95    1254.73       20.80    12.28   0.988
  S22                     1270.00       0.00       0.00       0.00       9.78    1260.09    1269.87        0.42     0.24   1.000
  S23                     1270.00       0.00       0.00       0.00       9.78    1260.22    1270.00        0.50     0.29   1.000
  S24                     1270.00       0.00       0.00       0.00       9.78    1260.22    1270.00        0.62     0.36   1.000
  S25                     1270.00       0.00       0.00       0.00       9.78    1260.22    1270.00        0.75     0.44   1.000
  S26                     1270.00       0.00       0.00       0.00       9.78    1260.22    1270.00        0.88     0.51   1.000
  S27                     1270.00       0.00       0.00       0.00       9.78    1261.12    1270.90       10.56     6.16   1.001
  S28                     1270.00       0.00       0.00       0.00       9.78    1248.16    1257.94       11.17     6.58   0.991
  S29                     1270.00       0.00       0.00       0.00       9.78    1260.15    1269.92        1.17     0.68   1.000
  S30                     1270.00       0.00       0.00       0.00       9.78    1081.04    1090.82       69.49    45.71   0.859
  S31                     1270.00       0.00       0.00       0.00      10.16    1259.84    1270.00       17.21    10.04   1.000
  S32                     1270.00       0.00       0.00       0.00      10.16    1259.84    1270.00        5.30     3.09   1.000
  S33                     1270.00       0.00       0.00       0.00      11.94    1258.06    1270.00        3.95     2.30   1.000
  S34                     1270.00       0.00       0.00       0.00      11.94    1258.06    1270.00        4.18     2.44   1.000
  S35                     1270.00       0.00       0.00       0.00      11.56    1258.44    1270.00        5.11     2.98   1.000
  S36                     1270.00       0.00       0.00       0.00      11.56    1258.44    1270.00        2.10     1.22   1.000
  S37                     1270.00       0.00       0.00       0.00      11.56    1258.44    1270.00        4.57     2.67   1.000
  S38                     1270.00       0.00       0.00       0.00      11.56    1258.44    1270.00        0.20     0.12   1.000
  S39                     1270.00       0.00       0.00       0.00      11.56    1258.44    1270.00        5.21     3.04   1.000
  S40                     1270.00       0.00       0.00       0.00      11.56    1258.44    1270.00        1.79     1.04   1.000
  S41                     1270.00       0.00       0.00       0.00      11.56    1258.44    1270.00        2.88     1.68   1.000
  S42                     1270.00       0.00       0.00       0.00      11.56    1258.44    1270.00        4.01     2.34   1.000
  S43                     1270.00       0.00       0.00       0.00      11.56    1258.44    1270.00        9.14     5.33   1.000
  S44                     1270.00       0.00       0.00       0.00      11.56    1258.44    1270.00        6.63     3.87   1.000
  S45                     1270.00       0.00       0.00       0.00      11.56    1258.44    1270.00        0.67     0.39   1.000
  S46                     1270.00       0.00       0.00       0.00      11.56    1258.44    1270.00        6.15     3.59   1.000
  S47                     1270.00       0.00       0.00       0.00      11.56    1258.44    1270.00       12.42     7.25   1.000
  S48                     1270.00       0.00       0.00       0.00      11.56    1258.44    1270.00       14.35     8.37   1.000
  S49                     1270.00       0.00       0.00       0.00      11.56    1258.44    1270.00        8.72     5.09   1.000
  S50                     1270.00       0.00       0.00       0.00      11.56    1258.44    1270.00        7.19     4.19   1.000
  S51                     1270.00       0.00       0.00       0.00      11.56    1258.44    1270.00        4.24     2.47   1.000
  S52                     1270.00       0.00       0.00       0.00      11.56    1258.44    1270.00       11.24     6.56   1.000
  S53                     1270.00       0.00       0.00       0.00      11.56    1247.65    1259.21       15.34     9.02   0.992
  S54                     1270.00       0.00       0.00       0.00      11.56    1261.45    1273.01        5.82     3.39   1.002
  S55                     1270.00       0.00       0.00       0.00      11.56    1258.44    1270.00        0.48     0.28   1.000
  S56                     1270.00       0.00       0.00       0.00      11.56    1258.40    1269.96        0.48     0.28   1.000
  S57                     1270.00       0.00       0.00       0.00      11.56    1258.44    1270.00        6.57     3.83   1.000
  S58                     1270.00       0.00       0.00       0.00      11.56    1258.44    1270.00        8.43     4.92   1.000
  S59                     1270.00       0.00       0.00       0.00      11.56    1258.44    1270.00        8.19     4.78   1.000
  S60                     1270.00       0.00       0.00       0.00       9.78    1262.43    1272.21        5.00     2.91   1.002
  S61                     1270.00       0.00       0.00       0.00       9.78       0.00       9.78        0.03     0.02   0.008
  S62                     1270.00       0.00       0.00       0.00       9.78    1050.03    1059.81       56.80    38.03   0.834
  S63                     1270.00       0.00       0.00       0.00       9.78    1260.22    1270.00       11.94     6.96   1.000
  S64                     1270.00       0.00       0.00       0.00       9.78    1260.22    1270.00       32.32    18.86   1.000
  S65                     1270.00       0.00       0.00       0.00       9.78    1260.22    1270.00        5.16     3.01   1.000
  S66                     1270.00       0.00       0.00       0.00       9.78    1260.22    1270.00        8.32     4.85   1.000
  S67                     1270.00       0.00       0.00       0.00       9.78    1260.22    1270.00       15.54     9.07   1.000
  S68                     1270.00       0.00       0.00       0.00       9.78    1260.22    1270.00       18.22    10.63   1.000
  S69                     1270.00       0.00       0.00       0.00       9.78       0.00       9.78        0.24     0.14   0.008
  S70                     1270.00       0.00       0.00       0.00       9.78    1243.43    1253.21       32.80    19.38   0.987
  S71                     1270.00       0.00       0.00       0.00      11.56    1258.44    1270.00       18.68    10.90   1.000
  S72                     1270.00       0.00       0.00       0.00       9.78    1261.74    1271.52        6.31     3.67   1.001
  S73                     1270.00       0.00       0.00       0.00       9.78    1260.22    1270.00       26.62    15.53   1.000
  S74                     1270.00       0.00       0.00       0.00       9.78       0.00       9.78        0.06     0.04   0.008
  S75                     1270.00       0.00       0.00       0.00       9.78    1260.22    1270.00        0.85     0.50   1.000
  S76                     1270.00       0.00       0.00       0.00       9.78    1260.22    1270.00       16.78     9.79   1.000
  S77                     1270.00       0.00       0.00       0.00       9.78    1260.22    1270.00       13.58     7.92   1.000
  S78                     1270.00       0.00       0.00       0.00       9.78    1260.22    1270.00        9.84     5.74   1.000
  S79                     1270.00       0.00       0.00       0.00      11.56    1258.44    1270.00        8.62     5.03   1.000
  S80                     1270.00       0.00       0.00       0.00       9.78    1261.06    1270.84        3.51     2.04   1.001
  S81                     1270.00       0.00       0.00       0.00       9.78    1260.22    1270.00       14.36     8.38   1.000
  S82                     1270.00       0.00       0.00       0.00       9.78    1260.22    1270.00       14.02     8.18   1.000
  S83                     1270.00       0.00       0.00       0.00       9.78    1260.22    1270.00        9.02     5.26   1.000
  S84                     1270.00       0.00       0.00       0.00      11.56    1258.44    1270.00        5.89     3.44   1.000
  S85                     1270.00       0.00       0.00       0.00      11.56    1253.69    1265.25       15.64     9.16   0.996
  S86                     1270.00       0.00       0.00       0.00       0.00    1258.44    1258.44       14.56     8.49   0.991
  S87                     1270.00       0.00       0.00       0.00      11.56    1258.44    1270.00       15.77     9.20   1.000
  S88                     1270.00       0.00       0.00       0.00      11.56    1258.44    1270.00        2.84     1.66   1.000
  S89                     1270.00       0.00       0.00       0.00      11.56    1258.44    1270.00       12.84     7.49   1.000
  S90                     1270.00       0.00       0.00       0.00       0.00    1258.44    1258.44        6.18     3.60   0.991
  S91                     1270.00       0.00       0.00       0.00      11.56    1258.44    1270.00        2.10     1.22   1.000
  
  
  ******************
  Node Depth Summary
  ******************
  
  ---------------------------------------------------------------------------------
                                 Average  Maximum  Maximum  Time of Max    Reported
                                   Depth    Depth      HGL   Occurrence   Max Depth
  Node                 Type       Meters   Meters   Meters  days hr:min      Meters
  ---------------------------------------------------------------------------------
  J7                   JUNCTION     2.48     2.50     2.50     0  00:05        2.50
  J13                  JUNCTION     2.48     2.50     2.50     0  00:05        2.50
  J19                  JUNCTION     2.48     2.50     2.50     0  00:05        2.50
  J25                  JUNCTION     2.48     2.50     2.50     0  00:05        2.50
  J1                   JUNCTION     2.48     2.50     2.50     0  00:05        2.50
  J2                   JUNCTION     2.48     2.50     2.50     0  00:05        2.50
  J3                   JUNCTION     2.48     2.50     2.50     0  00:05        2.50
  J4                   JUNCTION     2.48     2.50     2.50     0  00:05        2.50
  J5                   JUNCTION     2.48     2.50     2.50     0  00:05        2.50
  J6                   JUNCTION     2.48     2.50     2.50     0  00:05        2.50
  J8                   JUNCTION     2.48     2.50     2.50     0  00:05        2.50
  J9                   JUNCTION     2.48     2.50     2.50     0  00:05        2.50
  J10                  JUNCTION     2.48     2.50     2.50     0  00:05        2.50
  J11                  JUNCTION     2.48     2.50     2.50     0  00:05        2.50
  J12                  JUNCTION     2.48     2.50     2.50     0  00:05        2.50
  J14                  JUNCTION     2.48     2.50     2.50     0  00:05        2.50
  J15                  JUNCTION     2.48     2.50     2.50     0  00:05        2.50
  J16                  JUNCTION     2.48     2.50     2.50     0  00:05        2.50
  J17                  JUNCTION     2.48     2.50     2.50     0  00:05        2.50
  J18                  JUNCTION     2.48     2.50     2.50     0  00:05        2.50
  J20                  JUNCTION     2.48     2.50     2.50     0  00:05        2.50
  J21                  JUNCTION     2.48     2.50     2.50     0  00:05        2.50
  J22                  JUNCTION     2.48     2.50     2.50     0  00:05        2.50
  J23                  JUNCTION     2.48     2.50     2.50     0  00:05        2.50
  J24                  JUNCTION     2.48     2.50     2.50     0  00:05        2.50
  J26                  JUNCTION     2.48     2.50     2.50     0  00:05        2.50
  J27                  JUNCTION     2.48     2.50     2.50     0  00:05        2.50
  J29                  JUNCTION     2.48     2.50     2.50     0  00:05        2.50
  J30                  JUNCTION     2.48     2.50     2.50     0  00:05        2.50
  J31                  JUNCTION     2.48     2.50     2.50     0  00:05        2.50
  J33                  JUNCTION     2.48     2.50     2.50     0  00:05        2.50
  J32                  JUNCTION     2.48     2.50     2.50     0  00:05        2.50
  J28                  JUNCTION     2.48     2.50     2.50     0  00:05        2.50
  OF                   OUTFALL      1.36     1.41     1.41     0  00:05        1.37
  
  
  *******************
  Node Inflow Summary
  *******************
  
  -------------------------------------------------------------------------------------------------
                                  Maximum  Maximum                  Lateral       Total        Flow
                                  Lateral    Total  Time of Max      Inflow      Inflow     Balance
                                   Inflow   Inflow   Occurrence      Volume      Volume       Error
  Node                 Type           CMS      CMS  days hr:min    10^6 ltr    10^6 ltr     Percent
  -------------------------------------------------------------------------------------------------
  J7                   JUNCTION    50.219   50.219     0  00:40        69.7        69.7       3.047
  J13                  JUNCTION     4.227    4.227     0  00:40        6.62        6.62       5.165
  J19                  JUNCTION   200.316  200.316     0  00:40         313         313       5.042
  J25                  JUNCTION    24.721   24.883     0  00:40        34.8        35.7       2.727
  J1                   JUNCTION    16.815   16.815     0  00:40        26.3        26.3       5.274
  J2                   JUNCTION    12.633   12.633     0  00:10        19.8        19.8       4.137
  J3                   JUNCTION     0.563   19.943     0  00:05        0.88         7.9      22.124
  J4                   JUNCTION    36.579   37.918     0  00:05        57.2        58.6       3.627
  J5                   JUNCTION    30.244   30.244     0  00:40        47.3        47.3       3.231
  J6                   JUNCTION    13.233   13.233     0  00:10        20.7        20.7       5.270
  J8                   JUNCTION    20.360   20.360     0  00:10        31.8        31.8       5.274
  J9                   JUNCTION     9.155    9.155     0  00:40        14.3        14.3       4.049
  J10                  JUNCTION    13.662   13.662     0  00:10        21.4        21.4       4.577
  J11                  JUNCTION    14.678   15.569     0  00:05          23          24       3.555
  J12                  JUNCTION    15.530   15.721     0  00:05        24.3        24.6       3.567
  J14                  JUNCTION    13.159   13.159     0  00:10        20.6        20.6       5.274
  J15                  JUNCTION    18.829   18.829     0  00:40        29.3        29.3       4.856
  J16                  JUNCTION    10.899   13.257     0  00:05          17        19.4       4.308
  J17                  JUNCTION     0.142   11.543     0  00:05       0.222        5.95      16.208
  J18                  JUNCTION     0.496    8.439     0  00:05       0.776        4.42      15.217
  J20                  JUNCTION    36.784   36.784     0  00:40        56.9        56.9       5.027
  J21                  JUNCTION    12.146   12.146     0  00:35          19          19       5.274
  J22                  JUNCTION    24.929   24.929     0  00:40        38.5        38.5       4.580
  J23                  JUNCTION    13.083   13.565     0  00:10        20.5        21.2       3.818
  J24                  JUNCTION     1.725    5.149     0  00:05         2.7        4.99       8.291
  J26                  JUNCTION    10.728   10.728     0  00:10        16.8        16.8       5.274
  J27                  JUNCTION     9.410   11.105     0  00:05        14.7        16.3       4.385
  J29                  JUNCTION    15.433   16.551     0  00:05        24.1        25.4       4.197
  J30                  JUNCTION     0.000   19.840     0  00:05           0        7.22      24.501
  J31                  JUNCTION    45.620   45.743     0  00:40        62.3        62.7       2.301
  J33                  JUNCTION    15.185   15.185     0  00:40        23.8        23.8       5.265
  J32                  JUNCTION     6.928    6.928     0  00:05        10.8        10.8       4.869
  J28                  JUNCTION    11.077   14.545     0  00:05        17.3        19.7       4.094
  OF                   OUTFALL      0.000    7.968     0  00:05           0        16.6       0.000
  
  
  **********************
  Node Surcharge Summary
  **********************
  
  Surcharging occurs when water rises above the top of the highest conduit.
  ---------------------------------------------------------------------
                                               Max. Height   Min. Depth
                                   Hours       Above Crown    Below Rim
  Node                 Type      Surcharged         Meters       Meters
  ---------------------------------------------------------------------
  J7                   JUNCTION        0.67          0.850        0.000
  J13                  JUNCTION        0.67          0.850        0.000
  J19                  JUNCTION        0.67          0.850        0.000
  J25                  JUNCTION        0.67          0.850        0.000
  J1                   JUNCTION        0.67          0.850        0.000
  J2                   JUNCTION        0.67          0.850        0.000
  J3                   JUNCTION        0.67          0.850        0.000
  J4                   JUNCTION        0.67          0.850        0.000
  J5                   JUNCTION        0.67          0.850        0.000
  J6                   JUNCTION        0.67          0.850        0.000
  J8                   JUNCTION        0.67          0.850        0.000
  J9                   JUNCTION        0.67          0.850        0.000
  J10                  JUNCTION        0.67          0.850        0.000
  J11                  JUNCTION        0.67          0.850        0.000
  J12                  JUNCTION        0.67          0.850        0.000
  J14                  JUNCTION        0.67          0.850        0.000
  J15                  JUNCTION        0.67          0.850        0.000
  J16                  JUNCTION        0.67          0.850        0.000
  J17                  JUNCTION        0.67          0.850        0.000
  J18                  JUNCTION        0.67          0.850        0.000
  J20                  JUNCTION        0.67          0.850        0.000
  J21                  JUNCTION        0.67          0.850        0.000
  J22                  JUNCTION        0.67          0.850        0.000
  J23                  JUNCTION        0.67          0.850        0.000
  J24                  JUNCTION        0.67          0.850        0.000
  J26                  JUNCTION        0.67          0.850        0.000
  J27                  JUNCTION        0.67          0.850        0.000
  J29                  JUNCTION        0.67          0.850        0.000
  J30                  JUNCTION        0.67          0.850        0.000
  J31                  JUNCTION        0.67          0.850        0.000
  J33                  JUNCTION        0.67          0.850        0.000
  J32                  JUNCTION        0.67          0.850        0.000
  J28                  JUNCTION        0.67          0.850        0.000
  
  
  *********************
  Node Flooding Summary
  *********************
  
  Flooding refers to all water that overflows a node, whether it ponds or not.
  --------------------------------------------------------------------------
                                                             Total   Maximum
                                 Maximum   Time of Max       Flood    Ponded
                        Hours       Rate    Occurrence      Volume     Depth
  Node                 Flooded       CMS   days hr:min    10^6 ltr    Meters
  --------------------------------------------------------------------------
  J7                      0.67    49.961      0  00:40      68.281     0.000
  J13                     0.67     4.226      0  00:40       6.616     0.000
  J19                     0.67   192.963      0  00:40     296.478     0.000
  J25                     0.67    24.512      0  00:40      33.377     0.000
  J1                      0.67    16.815      0  00:40      26.292     0.000
  J2                      0.67    12.299      0  00:40      17.633     0.000
  J3                      0.67    17.969      0  00:05       7.904     0.000
  J4                      0.67    36.543      0  00:40      54.395     0.000
  J5                      0.67    29.654      0  00:40      42.249     0.000
  J6                      0.67    13.233      0  00:10      20.702     0.000
  J8                      0.67    20.360      0  00:10      31.836     0.000
  J9                      0.67     8.982      0  00:40      13.068     0.000
  J10                     0.67    13.229      0  00:40      19.364     0.000
  J11                     0.67    14.664      0  00:40      21.589     0.000
  J12                     0.67    15.440      0  00:40      22.413     0.000
  J14                     0.67    13.159      0  00:10      20.575     0.000
  J15                     0.67    18.671      0  00:40      28.496     0.000
  J16                     0.67    11.435      0  00:10      17.725     0.000
  J17                     0.67    10.921      0  00:05       5.948     0.000
  J18                     0.67     7.618      0  00:05       3.957     0.000
  J20                     0.67    36.778      0  00:40      56.939     0.000
  J21                     0.67    12.146      0  00:35      18.992     0.000
  J22                     0.67    24.619      0  00:40      37.027     0.000
  J23                     0.67    12.895      0  00:40      18.807     0.000
  J24                     0.67     5.042      0  00:05       4.987     0.000
  J26                     0.67    10.728      0  00:10      16.775     0.000
  J27                     0.67     9.569      0  00:10      14.907     0.000
  J29                     0.67    15.392      0  00:40      23.109     0.000
  J30                     0.67    17.940      0  00:05       7.218     0.000
  J31                     0.67    45.475      0  00:40      60.467     0.000
  J33                     0.67    15.185      0  00:40      23.764     0.000
  J32                     0.67     6.787      0  00:40      10.212     0.000
  J28                     0.67    11.529      0  00:09      17.653     0.000
  
  
  ***********************
  Outfall Loading Summary
  ***********************
  
  -----------------------------------------------------------
                         Flow       Avg       Max       Total
                         Freq      Flow      Flow      Volume
  Outfall Node           Pcnt       CMS       CMS    10^6 ltr
  -----------------------------------------------------------
  OF                   100.00     7.312     7.968      16.642
  -----------------------------------------------------------
  System               100.00     7.312     7.968      16.642
  
  
  ********************
  Link Flow Summary
  ********************
  
  -----------------------------------------------------------------------------
                                 Maximum  Time of Max   Maximum    Max/    Max/
                                  |Flow|   Occurrence   |Veloc|    Full    Full
  Link                 Type          CMS  days hr:min     m/sec    Flow   Depth
  -----------------------------------------------------------------------------
  P1                   PUMP        0.000     0  00:00                          
  C23                  CONDUIT     0.000     0  00:00      0.00    0.00    1.00
  C24                  CONDUIT     0.755     0  00:05      0.35    6.54    1.00
  C25                  CONDUIT     0.000     0  00:00      0.00    0.00    1.00
  C26                  CONDUIT     0.495     0  00:05      0.23    3.87    1.00
  C27                  CONDUIT     0.000     0  00:00      0.00    0.00    1.00
  C28                  CONDUIT     1.729     0  00:05      0.81   11.91    1.00
  C29                  CONDUIT     0.000     0  00:00      0.00    0.00    1.00
  C30                  CONDUIT     0.604     0  00:05      0.28    5.30    1.00
  C31                  CONDUIT     0.396     0  00:05      0.19    3.46    1.00
  C32                  CONDUIT     4.786     0  00:05      2.24   30.94    1.00
  C33                  CONDUIT    12.167     0  00:05      5.69   71.19    1.00
  C34                  CONDUIT     0.736     0  00:05      0.34    5.85    1.00
  C35                  CONDUIT     0.000     0  00:05      0.00    0.00    1.00
  C36                  CONDUIT     0.000     0  00:05      0.00    0.00    1.00
  C37                  CONDUIT     1.739     0  00:05      0.81   11.94    1.00
  C38                  CONDUIT     1.100     0  00:05      0.51    7.67    1.00
  C39                  CONDUIT     2.427     0  00:05      1.13   15.38    1.00
  C40                  CONDUIT     0.000     0  00:00      0.00    0.00    1.00
  C41                  CONDUIT     0.000     0  00:00      0.00    0.00    1.00
  C43                  CONDUIT     0.000     0  00:00      0.00    0.00    1.00
  C44                  CONDUIT     0.574     0  00:05      0.27    4.90    1.00
  C45                  CONDUIT    10.912     0  00:05      5.10   93.63    1.00
  C46                  CONDUIT     5.821     0  00:05      2.72   48.23    1.00
  C48                  CONDUIT     0.000     0  00:05      0.00    0.00    1.00
  C42                  CONDUIT     3.107     0  00:05      1.45   24.64    1.00
  C50                  CONDUIT     0.544     0  00:05      0.25    5.26    1.00
  C49                  CONDUIT     0.616     0  00:05      0.29    5.37    1.00
  C01                  CONDUIT     0.000     0  00:00      0.00    0.00    1.00
  C02                  CONDUIT     0.000     0  00:00      0.00    0.00    1.00
  C03                  CONDUIT     0.781     0  00:05      0.37    6.23    1.00
  C04                  CONDUIT     1.090     0  00:05      0.51    8.58    1.00
  C05                  CONDUIT     0.948     0  00:05      0.44    7.56    1.00
  C06                  CONDUIT     0.000     0  00:00      0.00    0.00    1.00
  C07                  CONDUIT     0.000     0  00:00      0.00    0.00    1.00
  C08                  CONDUIT     0.000     0  00:00      0.00    0.00    1.00
  C09                  CONDUIT     0.742     0  00:05      0.35    6.50    1.00
  C10                  CONDUIT     0.861     0  00:05      0.40    6.86    1.00
  C11                  CONDUIT     0.000     0  00:00      0.00    0.00    1.00
  C12                  CONDUIT     2.671     0  00:05      1.25   23.01    1.00
  C13                  CONDUIT     2.582     0  00:05      1.21   22.47    1.00
  C14                  CONDUIT     3.148     0  00:05      1.47   25.01    1.00
  C15                  CONDUIT     0.340     0  00:05      0.16    2.70    1.00
  C16                  CONDUIT     2.476     0  00:05      1.16   21.73    1.00
  C17                  CONDUIT     5.242     0  00:05      2.45   46.27    1.00
  C18                  CONDUIT     0.000     0  00:00      0.00    0.00    1.00
  C19                  CONDUIT     0.000     0  00:00      0.00    0.00    1.00
  C20                  CONDUIT     5.361     0  00:05      2.51   47.73    1.00
  C21                  CONDUIT     0.000     0  00:05      0.00    0.00    1.00
  C22                  CONDUIT     0.192     0  00:05      0.09    1.51    1.00
  C47                  CONDUIT     0.350     0  00:05      0.16    3.60    1.00
  Cout                 CONDUIT     7.968     0  00:05      3.85   62.92    0.93
  
  
  ***************************
  Flow Classification Summary
  ***************************
  
  -------------------------------------------------------------------------------------
                      Adjusted    ---------- Fraction of Time in Flow Class ---------- 
                       /Actual         Up    Down  Sub   Sup   Up    Down  Norm  Inlet 
  Conduit               Length    Dry  Dry   Dry   Crit  Crit  Crit  Crit  Ltd   Ctrl  
  -------------------------------------------------------------------------------------
  C23                     1.00   0.00  0.00  0.00  1.00  0.00  0.00  0.00  0.00  0.00
  C24                     1.00   0.00  0.00  0.00  1.00  0.00  0.00  0.00  0.00  0.00
  C25                     1.00   0.00  0.00  0.00  1.00  0.00  0.00  0.00  0.00  0.00
  C26                     1.00   0.00  0.00  0.00  1.00  0.00  0.00  0.00  0.00  0.00
  C27                     1.00   0.00  0.00  0.00  1.00  0.00  0.00  0.00  0.00  0.00
  C28                     1.00   0.00  0.00  0.00  1.00  0.00  0.00  0.00  0.00  0.00
  C29                     1.00   0.00  0.00  0.00  1.00  0.00  0.00  0.00  0.00  0.00
  C30                     1.00   0.00  0.00  0.00  1.00  0.00  0.00  0.00  0.00  0.00
  C31                     1.00   0.00  0.00  0.00  1.00  0.00  0.00  0.00  0.00  0.00
  C32                     1.00   0.00  0.00  0.00  1.00  0.00  0.00  0.00  0.00  0.00
  C33                     1.00   0.00  0.00  0.00  1.00  0.00  0.00  0.00  0.00  0.00
  C34                     1.00   0.00  0.00  0.00  1.00  0.00  0.00  0.00  0.00  0.00
  C35                     1.00   0.00  0.00  0.00  1.00  0.00  0.00  0.00  0.00  0.00
  C36                     1.00   0.00  0.00  0.00  1.00  0.00  0.00  0.00  0.00  0.00
  C37                     1.00   0.00  0.00  0.00  1.00  0.00  0.00  0.00  0.00  0.00
  C38                     1.00   0.00  0.00  0.00  1.00  0.00  0.00  0.00  0.00  0.00
  C39                     1.00   0.00  0.00  0.00  1.00  0.00  0.00  0.00  0.00  0.00
  C40                     1.00   0.00  0.00  0.00  1.00  0.00  0.00  0.00  0.00  0.00
  C41                     1.00   0.00  0.00  0.00  1.00  0.00  0.00  0.00  0.00  0.00
  C43                     1.00   0.00  0.00  0.00  1.00  0.00  0.00  0.00  0.00  0.00
  C44                     1.00   0.00  0.00  0.00  1.00  0.00  0.00  0.00  0.00  0.00
  C45                     1.00   0.00  0.00  0.00  1.00  0.00  0.00  0.00  0.00  0.00
  C46                     1.00   0.00  0.00  0.00  1.00  0.00  0.00  0.00  0.00  0.00
  C48                     1.00   0.00  0.00  0.00  1.00  0.00  0.00  0.00  0.00  0.00
  C42                     1.00   0.00  0.00  0.00  1.00  0.00  0.00  0.00  0.00  0.00
  C50                     1.00   0.00  0.00  0.00  1.00  0.00  0.00  0.00  0.00  0.00
  C49                     1.00   0.00  0.00  0.00  1.00  0.00  0.00  0.00  0.00  0.00
  C01                     1.00   0.00  0.00  0.00  1.00  0.00  0.00  0.00  0.00  0.00
  C02                     1.00   0.00  0.00  0.00  1.00  0.00  0.00  0.00  0.00  0.00
  C03                     1.00   0.00  0.00  0.00  1.00  0.00  0.00  0.00  0.00  0.00
  C04                     1.00   0.00  0.00  0.00  1.00  0.00  0.00  0.00  0.00  0.00
  C05                     1.00   0.00  0.00  0.00  1.00  0.00  0.00  0.00  0.00  0.00
  C06                     1.00   0.00  0.00  0.00  1.00  0.00  0.00  0.00  0.00  0.00
  C07                     1.00   0.00  0.00  0.00  1.00  0.00  0.00  0.00  0.00  0.00
  C08                     1.00   0.00  0.00  0.00  1.00  0.00  0.00  0.00  0.00  0.00
  C09                     1.00   0.00  0.00  0.00  1.00  0.00  0.00  0.00  0.00  0.00
  C10                     1.00   0.00  0.00  0.00  1.00  0.00  0.00  0.00  0.00  0.00
  C11                     1.00   0.00  0.00  0.00  1.00  0.00  0.00  0.00  0.00  0.00
  C12                     1.00   0.00  0.00  0.00  1.00  0.00  0.00  0.00  0.00  0.00
  C13                     1.00   0.00  0.00  0.00  1.00  0.00  0.00  0.00  0.00  0.00
  C14                     1.00   0.00  0.00  0.00  1.00  0.00  0.00  0.00  0.00  0.00
  C15                     1.00   0.00  0.00  0.00  1.00  0.00  0.00  0.00  0.00  0.00
  C16                     1.00   0.00  0.00  0.00  1.00  0.00  0.00  0.00  0.00  0.00
  C17                     1.00   0.00  0.00  0.00  1.00  0.00  0.00  0.00  0.00  0.00
  C18                     1.00   0.00  0.00  0.00  1.00  0.00  0.00  0.00  0.00  0.00
  C19                     1.00   0.00  0.00  0.00  1.00  0.00  0.00  0.00  0.00  0.00
  C20                     1.00   0.00  0.00  0.00  1.00  0.00  0.00  0.00  0.00  0.00
  C21                     1.00   0.00  0.00  0.00  1.00  0.00  0.00  0.00  0.00  0.00
  C22                     1.00   0.00  0.00  0.00  1.00  0.00  0.00  0.00  0.00  0.00
  C47                     1.00   0.00  0.00  0.00  1.00  0.00  0.00  0.00  0.00  0.00
  Cout                    1.00   0.00  0.00  0.00  1.00  0.00  0.00  0.00  0.00  0.00
  
  
  *************************
  Conduit Surcharge Summary
  *************************
  
  ----------------------------------------------------------------------------
                                                           Hours        Hours 
                         --------- Hours Full --------   Above Full   Capacity
  Conduit                Both Ends  Upstream  Dnstream   Normal Flow   Limited
  ----------------------------------------------------------------------------
  C23                         0.67      0.67      0.67      0.01         0.01
  C24                         0.67      0.67      0.67      0.67         0.01
  C25                         0.67      0.67      0.67      0.01         0.01
  C26                         0.67      0.67      0.67      0.67         0.01
  C27                         0.67      0.67      0.67      0.01         0.01
  C28                         0.67      0.67      0.67      0.67         0.01
  C29                         0.67      0.67      0.67      0.01         0.01
  C30                         0.67      0.67      0.67      0.67         0.01
  C31                         0.67      0.67      0.67      0.67         0.01
  C32                         0.67      0.67      0.67      0.67         0.01
  C33                         0.67      0.67      0.67      0.67         0.01
  C34                         0.67      0.67      0.67      0.67         0.01
  C35                         0.67      0.67      0.67      0.01         0.01
  C36                         0.67      0.67      0.67      0.01         0.01
  C37                         0.67      0.67      0.67      0.67         0.01
  C38                         0.67      0.67      0.67      0.67         0.01
  C39                         0.67      0.67      0.67      0.67         0.01
  C40                         0.67      0.67      0.67      0.01         0.01
  C41                         0.67      0.67      0.67      0.01         0.01
  C43                         0.67      0.67      0.67      0.01         0.01
  C44                         0.67      0.67      0.67      0.67         0.01
  C45                         0.67      0.67      0.67      0.67         0.01
  C46                         0.67      0.67      0.67      0.67         0.01
  C48                         0.67      0.67      0.67      0.01         0.01
  C42                         0.67      0.67      0.67      0.67         0.01
  C50                         0.67      0.67      0.67      0.67         0.01
  C49                         0.67      0.67      0.67      0.67         0.01
  C01                         0.67      0.67      0.67      0.01         0.01
  C02                         0.67      0.67      0.67      0.01         0.01
  C03                         0.67      0.67      0.67      0.67         0.01
  C04                         0.67      0.67      0.67      0.67         0.01
  C05                         0.67      0.67      0.67      0.67         0.01
  C06                         0.67      0.67      0.67      0.01         0.01
  C07                         0.67      0.67      0.67      0.01         0.01
  C08                         0.67      0.67      0.67      0.01         0.01
  C09                         0.67      0.67      0.67      0.67         0.01
  C10                         0.67      0.67      0.67      0.67         0.01
  C11                         0.67      0.67      0.67      0.01         0.01
  C12                         0.67      0.67      0.67      0.67         0.01
  C13                         0.67      0.67      0.67      0.67         0.01
  C14                         0.67      0.67      0.67      0.67         0.01
  C15                         0.67      0.67      0.67      0.63         0.01
  C16                         0.67      0.67      0.67      0.67         0.01
  C17                         0.67      0.67      0.67      0.67         0.01
  C18                         0.67      0.67      0.67      0.01         0.01
  C19                         0.67      0.67      0.67      0.01         0.01
  C20                         0.67      0.67      0.67      0.67         0.01
  C21                         0.67      0.67      0.67      0.01         0.01
  C22                         0.67      0.67      0.67      0.38         0.01
  C47                         0.67      0.67      0.67      0.67         0.01
  Cout                        0.01      0.67      0.01      0.67         0.01
  
  
  ***************
  Pumping Summary
  ***************
  
  ---------------------------------------------------------------------------------------------------------
                                                  Min       Avg       Max     Total     Power    % Time Off
                        Percent   Number of      Flow      Flow      Flow    Volume     Usage    Pump Curve
  Pump                 Utilized   Start-Ups       CMS       CMS       CMS  10^6 ltr     Kw-hr    Low   High
  ---------------------------------------------------------------------------------------------------------
  P1                       0.00           0      0.00      0.00      0.00     0.000      0.00    0.0    0.0
  

  Analysis begun on:  Mon Dec  2 16:52:55 2024
  Analysis ended on:  Mon Dec  2 16:52:55 2024
  Total elapsed time: < 1 sec