
  EPA STORM WATER MANAGEMENT MODEL - VERSION 5.2 (Build 5.2.4)
  PYSWMM TOOLKIT API - VERSION v1.0 (2023-11-27)
  ------------------------------------------------------------

  WARNING 04: minimum elevation drop used for Conduit C23
  WARNING 04: minimum elevation drop used for Conduit C24
  WARNING 04: minimum elevation drop used for Conduit C25
  WARNING 04: minimum elevation drop used for Conduit C26
  WARNING 04: minimum elevation drop used for Conduit C27
  WARNING 04: minimum elevation drop used for Conduit C28
  WARNING 04: minimum elevation drop used for Conduit C29
  WARNING 04: minimum elevation drop used for Conduit C30
  WARNING 04: minimum elevation drop used for Conduit C31
  WARNING 04: minimum elevation drop used for Conduit C32
  WARNING 04: minimum elevation drop used for Conduit C33
  WARNING 04: minimum elevation drop used for Conduit C34
  WARNING 04: minimum elevation drop used for Conduit C35
  WARNING 04: minimum elevation drop used for Conduit C36
  WARNING 04: minimum elevation drop used for Conduit C37
  WARNING 04: minimum elevation drop used for Conduit C38
  WARNING 04: minimum elevation drop used for Conduit C39
  WARNING 04: minimum elevation drop used for Conduit C40
  WARNING 04: minimum elevation drop used for Conduit C41
  WARNING 04: minimum elevation drop used for Conduit C43
  WARNING 04: minimum elevation drop used for Conduit C44
  WARNING 04: minimum elevation drop used for Conduit C45
  WARNING 04: minimum elevation drop used for Conduit C46
  WARNING 04: minimum elevation drop used for Conduit C48
  WARNING 04: minimum elevation drop used for Conduit C42
  WARNING 04: minimum elevation drop used for Conduit C50
  WARNING 04: minimum elevation drop used for Conduit C49
  WARNING 04: minimum elevation drop used for Conduit C01
  WARNING 04: minimum elevation drop used for Conduit C02
  WARNING 04: minimum elevation drop used for Conduit C03
  WARNING 04: minimum elevation drop used for Conduit C04
  WARNING 04: minimum elevation drop used for Conduit C05
  WARNING 04: minimum elevation drop used for Conduit C06
  WARNING 04: minimum elevation drop used for Conduit C07
  WARNING 04: minimum elevation drop used for Conduit C08
  WARNING 04: minimum elevation drop used for Conduit C09
  WARNING 04: minimum elevation drop used for Conduit C10
  WARNING 04: minimum elevation drop used for Conduit C11
  WARNING 04: minimum elevation drop used for Conduit C12
  WARNING 04: minimum elevation drop used for Conduit C13
  WARNING 04: minimum elevation drop used for Conduit C14
  WARNING 04: minimum elevation drop used for Conduit C15
  WARNING 04: minimum elevation drop used for Conduit C16
  WARNING 04: minimum elevation drop used for Conduit C17
  WARNING 04: minimum elevation drop used for Conduit C18
  WARNING 04: minimum elevation drop used for Conduit C19
  WARNING 04: minimum elevation drop used for Conduit C20
  WARNING 04: minimum elevation drop used for Conduit C21
  WARNING 04: minimum elevation drop used for Conduit C22
  WARNING 04: minimum elevation drop used for Conduit C47
  WARNING 04: minimum elevation drop used for Conduit Cout
  
  ****************
  Analysis Options
  ****************
  Flow Units ............... CMS
  Process Models:
    Rainfall/Runoff ........ YES
    RDII ................... NO
    Snowmelt ............... NO
    Groundwater ............ NO
    Flow Routing ........... YES
    Ponding Allowed ........ NO
    Water Quality .......... NO
  Infiltration Method ...... HORTON
  Flow Routing Method ...... DYNWAVE
  Surcharge Method ......... EXTRAN
  Starting Date ............ 11/20/2022 12:00:00
  Ending Date .............. 11/20/2022 12:40:00
  Antecedent Dry Days ...... 0.0
  Report Time Step ......... 00:10:00
  Wet Time Step ............ 00:05:00
  Dry Time Step ............ 01:00:00
  Routing Time Step ........ 300.00 sec
  Variable Time Step ....... YES
  Maximum Trials ........... 8
  Number of Threads ........ 1
  Head Tolerance ........... 0.001524 m
  
  
  *********************
  Rainfall File Summary
  *********************
  Station    First        Last         Recording   Periods    Periods    Periods
  ID         Date         Date         Frequency  w/Precip    Missing    Malfunc.
  -------------------------------------------------------------------------------
  204        11/20/2022   11/20/2022      10 min         5          0          0

  
  
  **************************        Volume         Depth
  Runoff Quantity Continuity     hectare-m            mm
  **************************     ---------       -------
  Total Precipitation ......       161.284      1612.900
  Evaporation Loss .........         0.000         0.000
  Infiltration Loss ........         0.000         0.000
  Surface Runoff ...........       153.566      1535.725
  Final Storage ............         9.250        92.504
  Continuity Error (%) .....        -0.950
  
  
  **************************        Volume        Volume
  Flow Routing Continuity        hectare-m      10^6 ltr
  **************************     ---------     ---------
  Dry Weather Inflow .......         0.000         0.000
  Wet Weather Inflow .......       151.026      1510.278
  Groundwater Inflow .......         0.000         0.000
  RDII Inflow ..............         0.000         0.000
  External Inflow ..........         0.000         0.000
  External Outflow .........         1.664        16.644
  Flooding Loss ............       143.860      1438.615
  Evaporation Loss .........         0.000         0.000
  Exfiltration Loss ........         0.000         0.000
  Initial Stored Volume ....         0.046         0.463
  Final Stored Volume ......         1.883        18.831
  Continuity Error (%) .....         2.426
  
  
  *************************
  Highest Continuity Errors
  *************************
  Node J30 (21.89%)
  Node J3 (17.95%)
  Node J17 (13.76%)
  Node J18 (12.45%)
  Node J24 (5.07%)
  
  
  ***************************
  Time-Step Critical Elements
  ***************************
  Link Cout (98.69%)
  
  
  ********************************
  Highest Flow Instability Indexes
  ********************************
  Link C24 (2)
  Link C31 (2)
  Link C33 (2)
  Link C34 (2)
  Link C46 (2)
  
  
  *********************************
  Most Frequent Nonconverging Nodes
  *********************************
  Convergence obtained at all time steps.
  
  
  *************************
  Routing Time Step Summary
  *************************
  Minimum Time Step           :     4.82 sec
  Average Time Step           :    15.69 sec
  Maximum Time Step           :   300.00 sec
  % of Time in Steady State   :     0.00
  Average Iterations per Step :     2.02
  % of Steps Not Converging   :     0.00
  Time Step Frequencies       :
     300.000 - 83.462 sec      :     0.66 %
     83.462 - 23.220 sec      :     0.00 %
     23.220 -  6.460 sec      :    98.68 %
      6.460 -  1.797 sec      :     0.66 %
      1.797 -  0.500 sec      :     0.00 %
  
  
  ***************************
  Subcatchment Runoff Summary
  ***************************
  
  ------------------------------------------------------------------------------------------------------------------------------
                            Total      Total      Total      Total     Imperv       Perv      Total       Total     Peak  Runoff
                           Precip      Runon       Evap      Infil     Runoff     Runoff     Runoff      Runoff   Runoff   Coeff
  Subcatchment                 mm         mm         mm         mm         mm         mm         mm    10^6 ltr      CMS
  ------------------------------------------------------------------------------------------------------------------------------
  S1                      1612.90       0.00       0.00       0.00      15.97    1596.93    1612.90      406.87   224.28   1.000
  S2                      1612.90       0.00       0.00       0.00      14.68    1599.34    1614.02       12.54     6.91   1.001
  S3                      1612.90       0.00       0.00       0.00      14.68    1598.22    1612.90        3.34     1.84   1.000
  S4                      1612.90       0.00       0.00       0.00      14.68    1598.22    1612.90        3.31     1.82   1.000
  S5                      1612.90       0.00       0.00       0.00      14.68    1598.22    1612.90        4.82     2.66   1.000
  S6                      1612.90       0.00       0.00       0.00      14.68    1598.22    1612.90       13.29     7.33   1.000
  S7                      1612.90       0.00       0.00       0.00      14.68    1598.22    1612.90        2.50     1.38   1.000
  S8                      1612.90       0.00       0.00       0.00      14.68    1598.22    1612.90        7.85     4.33   1.000
  S9                      1612.90       0.00       0.00       0.00      14.68    1598.22    1612.90        9.71     5.35   1.000
  S10                     1612.90       0.00       0.00       0.00       0.00    1598.22    1598.22        2.25     1.24   0.991
  S11                     1612.90       0.00       0.00       0.00      14.68    1579.63    1594.31       23.32    12.99   0.988
  S12                     1612.90       0.00       0.00       0.00      14.68    1598.22    1612.90       14.00     7.72   1.000
  S13                     1612.90       0.00       0.00       0.00       0.00    1598.22    1598.22       13.49     7.44   0.991
  S14                     1612.90       0.00       0.00       0.00      13.55    1599.35    1612.90       12.95     7.14   1.000
  S15                     1612.90       0.00       0.00       0.00      13.55    1599.35    1612.90       12.10     6.67   1.000
  S16                     1612.90       0.00       0.00       0.00      12.42    1602.01    1614.43       28.51    15.70   1.001
  S17                     1612.90       0.00       0.00       0.00      12.42    1522.14    1534.56       52.25    30.02   0.951
  S18                     1612.90       0.00       0.00       0.00      12.42    1600.48    1612.90        2.08     1.15   1.000
  S19                     1612.90       0.00       0.00       0.00      12.42       0.00      12.42        0.03     0.02   0.008
  S20                     1612.90       0.00       0.00       0.00      12.42    1600.40    1612.82        1.65     0.91   1.000
  S21                     1612.90       0.00       0.00       0.00      12.42    1595.54    1607.96       26.66    14.74   0.997
  S22                     1612.90       0.00       0.00       0.00      12.42    1600.50    1612.92        0.53     0.29   1.000
  S23                     1612.90       0.00       0.00       0.00      12.42    1600.48    1612.90        0.63     0.35   1.000
  S24                     1612.90       0.00       0.00       0.00      12.42    1600.48    1612.90        0.79     0.44   1.000
  S25                     1612.90       0.00       0.00       0.00      12.42    1600.48    1612.90        0.95     0.52   1.000
  S26                     1612.90       0.00       0.00       0.00      12.42    1600.48    1612.90        1.11     0.61   1.000
  S27                     1612.90       0.00       0.00       0.00      12.42    1600.74    1613.16       13.41     7.39   1.000
  S28                     1612.90       0.00       0.00       0.00      12.42    1597.07    1609.49       14.29     7.89   0.998
  S29                     1612.90       0.00       0.00       0.00      12.42    1600.42    1612.84        1.48     0.82   1.000
  S30                     1612.90       0.00       0.00       0.00      12.42    1490.19    1502.61       95.72    55.85   0.932
  S31                     1612.90       0.00       0.00       0.00      12.90    1600.00    1612.90       21.85    12.05   1.000
  S32                     1612.90       0.00       0.00       0.00      12.90    1600.00    1612.90        6.73     3.71   1.000
  S33                     1612.90       0.00       0.00       0.00      15.16    1597.74    1612.90        5.02     2.77   1.000
  S34                     1612.90       0.00       0.00       0.00      15.16    1597.74    1612.90        5.31     2.93   1.000
  S35                     1612.90       0.00       0.00       0.00      14.68    1598.22    1612.90        6.48     3.57   1.000
  S36                     1612.90       0.00       0.00       0.00      14.68    1598.22    1612.90        2.66     1.47   1.000
  S37                     1612.90       0.00       0.00       0.00      14.68    1598.22    1612.90        5.81     3.20   1.000
  S38                     1612.90       0.00       0.00       0.00      14.68    1598.22    1612.90        0.26     0.14   1.000
  S39                     1612.90       0.00       0.00       0.00      14.68    1598.22    1612.90        6.61     3.65   1.000
  S40                     1612.90       0.00       0.00       0.00      14.68    1598.22    1612.90        2.27     1.25   1.000
  S41                     1612.90       0.00       0.00       0.00      14.68    1598.22    1612.90        3.66     2.02   1.000
  S42                     1612.90       0.00       0.00       0.00      14.68    1598.22    1612.90        5.10     2.81   1.000
  S43                     1612.90       0.00       0.00       0.00      14.68    1598.22    1612.90       11.61     6.40   1.000
  S44                     1612.90       0.00       0.00       0.00      14.68    1598.22    1612.90        8.42     4.64   1.000
  S45                     1612.90       0.00       0.00       0.00      14.68    1598.22    1612.90        0.85     0.47   1.000
  S46                     1612.90       0.00       0.00       0.00      14.68    1598.22    1612.90        7.81     4.30   1.000
  S47                     1612.90       0.00       0.00       0.00      14.68    1598.22    1612.90       15.77     8.70   1.000
  S48                     1612.90       0.00       0.00       0.00      14.68    1598.22    1612.90       18.23    10.05   1.000
  S49                     1612.90       0.00       0.00       0.00      14.68    1598.22    1612.90       11.08     6.11   1.000
  S50                     1612.90       0.00       0.00       0.00      14.68    1598.22    1612.90        9.13     5.03   1.000
  S51                     1612.90       0.00       0.00       0.00      14.68    1598.22    1612.90        5.39     2.97   1.000
  S52                     1612.90       0.00       0.00       0.00      14.68    1598.22    1612.90       14.27     7.87   1.000
  S53                     1612.90       0.00       0.00       0.00      14.68    1595.39    1610.07       19.61    10.83   0.998
  S54                     1612.90       0.00       0.00       0.00      14.68    1599.82    1614.50        7.38     4.06   1.001
  S55                     1612.90       0.00       0.00       0.00      14.68    1598.22    1612.90        0.61     0.34   1.000
  S56                     1612.90       0.00       0.00       0.00      14.68    1598.19    1612.87        0.61     0.34   1.000
  S57                     1612.90       0.00       0.00       0.00      14.68    1598.22    1612.90        8.34     4.60   1.000
  S58                     1612.90       0.00       0.00       0.00      14.68    1598.22    1612.90       10.71     5.90   1.000
  S59                     1612.90       0.00       0.00       0.00      14.68    1598.22    1612.90       10.40     5.73   1.000
  S60                     1612.90       0.00       0.00       0.00      12.42    1601.32    1613.74        6.34     3.49   1.001
  S61                     1612.90       0.00       0.00       0.00      12.42       0.00      12.42        0.04     0.02   0.008
  S62                     1612.90       0.00       0.00       0.00      12.42    1466.38    1478.80       79.25    46.76   0.917
  S63                     1612.90       0.00       0.00       0.00      12.42    1600.48    1612.90       15.16     8.36   1.000
  S64                     1612.90       0.00       0.00       0.00      12.42    1600.48    1612.90       41.05    22.63   1.000
  S65                     1612.90       0.00       0.00       0.00      12.42    1600.48    1612.90        6.55     3.61   1.000
  S66                     1612.90       0.00       0.00       0.00      12.42    1600.48    1612.90       10.56     5.82   1.000
  S67                     1612.90       0.00       0.00       0.00      12.42    1600.48    1612.90       19.74    10.88   1.000
  S68                     1612.90       0.00       0.00       0.00      12.42    1600.48    1612.90       23.15    12.76   1.000
  S69                     1612.90       0.00       0.00       0.00      12.42       0.00      12.42        0.31     0.17   0.008
  S70                     1612.90       0.00       0.00       0.00      12.42    1594.79    1607.21       42.06    23.26   0.996
  S71                     1612.90       0.00       0.00       0.00      14.68    1598.22    1612.90       23.73    13.08   1.000
  S72                     1612.90       0.00       0.00       0.00      12.42    1602.35    1614.77        8.01     4.41   1.001
  S73                     1612.90       0.00       0.00       0.00      12.42    1600.48    1612.90       33.81    18.64   1.000
  S74                     1612.90       0.00       0.00       0.00      12.42       0.00      12.42        0.08     0.05   0.008
  S75                     1612.90       0.00       0.00       0.00      12.42    1600.48    1612.90        1.08     0.60   1.000
  S76                     1612.90       0.00       0.00       0.00      12.42    1600.48    1612.90       21.31    11.74   1.000
  S77                     1612.90       0.00       0.00       0.00      12.42    1600.48    1612.90       17.24     9.50   1.000
  S78                     1612.90       0.00       0.00       0.00      12.42    1600.48    1612.90       12.50     6.89   1.000
  S79                     1612.90       0.00       0.00       0.00      14.68    1598.22    1612.90       10.95     6.04   1.000
  S80                     1612.90       0.00       0.00       0.00      12.42    1600.69    1613.11        4.45     2.45   1.000
  S81                     1612.90       0.00       0.00       0.00      12.42    1600.48    1612.90       18.24    10.06   1.000
  S82                     1612.90       0.00       0.00       0.00      12.42    1600.48    1612.90       17.81     9.82   1.000
  S83                     1612.90       0.00       0.00       0.00      12.42    1600.48    1612.90       11.45     6.31   1.000
  S84                     1612.90       0.00       0.00       0.00      14.68    1598.22    1612.90        7.48     4.13   1.000
  S85                     1612.90       0.00       0.00       0.00      14.68    1598.01    1612.69       19.93    10.99   1.000
  S86                     1612.90       0.00       0.00       0.00       0.00    1598.22    1598.22       18.49    10.19   0.991
  S87                     1612.90       0.00       0.00       0.00      14.68    1598.22    1612.90       20.03    11.04   1.000
  S88                     1612.90       0.00       0.00       0.00      14.68    1598.22    1612.90        3.61     1.99   1.000
  S89                     1612.90       0.00       0.00       0.00      14.68    1598.22    1612.90       16.31     8.99   1.000
  S90                     1612.90       0.00       0.00       0.00       0.00    1598.22    1598.22        7.85     4.33   0.991
  S91                     1612.90       0.00       0.00       0.00      14.68    1598.22    1612.90        2.66     1.47   1.000
  
  
  ******************
  Node Depth Summary
  ******************
  
  ---------------------------------------------------------------------------------
                                 Average  Maximum  Maximum  Time of Max    Reported
                                   Depth    Depth      HGL   Occurrence   Max Depth
  Node                 Type       Meters   Meters   Meters  days hr:min      Meters
  ---------------------------------------------------------------------------------
  J7                   JUNCTION     2.48     2.50     2.50     0  00:05        2.50
  J13                  JUNCTION     2.48     2.50     2.50     0  00:05        2.50
  J19                  JUNCTION     2.48     2.50     2.50     0  00:05        2.50
  J25                  JUNCTION     2.48     2.50     2.50     0  00:05        2.50
  J1                   JUNCTION     2.48     2.50     2.50     0  00:05        2.50
  J2                   JUNCTION     2.48     2.50     2.50     0  00:05        2.50
  J3                   JUNCTION     2.48     2.50     2.50     0  00:05        2.50
  J4                   JUNCTION     2.48     2.50     2.50     0  00:05        2.50
  J5                   JUNCTION     2.48     2.50     2.50     0  00:05        2.50
  J6                   JUNCTION     2.48     2.50     2.50     0  00:05        2.50
  J8                   JUNCTION     2.48     2.50     2.50     0  00:05        2.50
  J9                   JUNCTION     2.48     2.50     2.50     0  00:05        2.50
  J10                  JUNCTION     2.48     2.50     2.50     0  00:05        2.50
  J11                  JUNCTION     2.48     2.50     2.50     0  00:05        2.50
  J12                  JUNCTION     2.48     2.50     2.50     0  00:05        2.50
  J14                  JUNCTION     2.48     2.50     2.50     0  00:05        2.50
  J15                  JUNCTION     2.48     2.50     2.50     0  00:05        2.50
  J16                  JUNCTION     2.48     2.50     2.50     0  00:05        2.50
  J17                  JUNCTION     2.48     2.50     2.50     0  00:05        2.50
  J18                  JUNCTION     2.48     2.50     2.50     0  00:05        2.50
  J20                  JUNCTION     2.48     2.50     2.50     0  00:05        2.50
  J21                  JUNCTION     2.48     2.50     2.50     0  00:05        2.50
  J22                  JUNCTION     2.48     2.50     2.50     0  00:05        2.50
  J23                  JUNCTION     2.48     2.50     2.50     0  00:05        2.50
  J24                  JUNCTION     2.48     2.50     2.50     0  00:05        2.50
  J26                  JUNCTION     2.48     2.50     2.50     0  00:05        2.50
  J27                  JUNCTION     2.48     2.50     2.50     0  00:05        2.50
  J29                  JUNCTION     2.48     2.50     2.50     0  00:05        2.50
  J30                  JUNCTION     2.48     2.50     2.50     0  00:05        2.50
  J31                  JUNCTION     2.48     2.50     2.50     0  00:05        2.50
  J33                  JUNCTION     2.48     2.50     2.50     0  00:05        2.50
  J32                  JUNCTION     2.48     2.50     2.50     0  00:05        2.50
  J28                  JUNCTION     2.48     2.50     2.50     0  00:05        2.50
  OF                   OUTFALL      1.36     1.42     1.42     0  00:05        1.37
  
  
  *******************
  Node Inflow Summary
  *******************
  
  -------------------------------------------------------------------------------------------------
                                  Maximum  Maximum                  Lateral       Total        Flow
                                  Lateral    Total  Time of Max      Inflow      Inflow     Balance
                                   Inflow   Inflow   Occurrence      Volume      Volume       Error
  Node                 Type           CMS      CMS  days hr:min    10^6 ltr    10^6 ltr     Percent
  -------------------------------------------------------------------------------------------------
  J7                   JUNCTION    61.495   61.495     0  00:30         103         103       2.378
  J13                  JUNCTION     5.072    5.072     0  00:30        9.08        9.08       4.085
  J19                  JUNCTION   240.384  240.384     0  00:30         430         430       3.985
  J25                  JUNCTION    30.019   30.150     0  00:30          51        51.3       2.063
  J1                   JUNCTION    20.178   20.178     0  00:30        36.1        36.1       4.151
  J2                   JUNCTION    15.159   15.159     0  00:30        27.1        27.1       3.156
  J3                   JUNCTION     0.676   21.972     0  00:05        1.21        8.77      21.876
  J4                   JUNCTION    43.895   44.177     0  00:25        78.5        79.2       2.986
  J5                   JUNCTION    36.293   36.293     0  00:25        64.9        64.9       2.800
  J6                   JUNCTION    15.879   15.879     0  00:25        28.4        28.4       4.150
  J8                   JUNCTION    24.432   24.432     0  00:30        43.7        43.7       4.151
  J9                   JUNCTION    10.988   10.988     0  00:30        19.6        19.6       3.360
  J10                  JUNCTION    16.395   16.395     0  00:25        29.3        29.3       3.837
  J11                  JUNCTION    17.614   17.911     0  00:25        31.5        32.3       2.907
  J12                  JUNCTION    18.636   18.703     0  00:25        33.3        33.5       2.915
  J14                  JUNCTION    15.790   15.790     0  00:25        28.2        28.2       4.151
  J15                  JUNCTION    22.599   22.599     0  00:30        40.4        40.4       3.877
  J16                  JUNCTION    13.079   14.736     0  00:05        23.4        25.5       3.441
  J17                  JUNCTION     0.170   11.826     0  00:05       0.304        6.17      15.958
  J18                  JUNCTION     0.596    8.754     0  00:05        1.07        4.77      14.227
  J20                  JUNCTION    44.163   44.163     0  00:30        78.7        78.7       3.953
  J21                  JUNCTION    14.575   14.575     0  00:30        26.1        26.1       4.151
  J22                  JUNCTION    29.930   29.930     0  00:30        53.3        53.3       3.714
  J23                  JUNCTION    15.701   15.864     0  00:30        28.1        28.6       3.275
  J24                  JUNCTION     2.070    3.628     0  00:05         3.7        5.21       5.342
  J26                  JUNCTION    12.874   12.874     0  00:30          23          23       4.151
  J27                  JUNCTION    11.291   14.162     0  00:05        20.2        22.4       3.167
  J29                  JUNCTION    18.520   18.823     0  00:25        33.1        33.9       3.186
  J30                  JUNCTION     0.000   25.773     0  00:05           0        8.43      28.017
  J31                  JUNCTION    55.846   55.846     0  00:30          93          93       1.266
  J33                  JUNCTION    18.222   18.222     0  00:30        32.6        32.6       4.148
  J32                  JUNCTION     8.313    8.313     0  00:30        14.9        14.9       3.993
  J28                  JUNCTION    13.292   16.043     0  00:05        23.8          26       3.312
  OF                   OUTFALL      0.000    7.984     0  00:05           0        16.6       0.000
  
  
  **********************
  Node Surcharge Summary
  **********************
  
  Surcharging occurs when water rises above the top of the highest conduit.
  ---------------------------------------------------------------------
                                               Max. Height   Min. Depth
                                   Hours       Above Crown    Below Rim
  Node                 Type      Surcharged         Meters       Meters
  ---------------------------------------------------------------------
  J7                   JUNCTION        0.67          0.850        0.000
  J13                  JUNCTION        0.67          0.850        0.000
  J19                  JUNCTION        0.67          0.850        0.000
  J25                  JUNCTION        0.67          0.850        0.000
  J1                   JUNCTION        0.67          0.850        0.000
  J2                   JUNCTION        0.67          0.850        0.000
  J3                   JUNCTION        0.67          0.850        0.000
  J4                   JUNCTION        0.67          0.850        0.000
  J5                   JUNCTION        0.67          0.850        0.000
  J6                   JUNCTION        0.67          0.850        0.000
  J8                   JUNCTION        0.67          0.850        0.000
  J9                   JUNCTION        0.67          0.850        0.000
  J10                  JUNCTION        0.67          0.850        0.000
  J11                  JUNCTION        0.67          0.850        0.000
  J12                  JUNCTION        0.67          0.850        0.000
  J14                  JUNCTION        0.67          0.850        0.000
  J15                  JUNCTION        0.67          0.850        0.000
  J16                  JUNCTION        0.67          0.850        0.000
  J17                  JUNCTION        0.67          0.850        0.000
  J18                  JUNCTION        0.67          0.850        0.000
  J20                  JUNCTION        0.67          0.850        0.000
  J21                  JUNCTION        0.67          0.850        0.000
  J22                  JUNCTION        0.67          0.850        0.000
  J23                  JUNCTION        0.67          0.850        0.000
  J24                  JUNCTION        0.67          0.850        0.000
  J26                  JUNCTION        0.67          0.850        0.000
  J27                  JUNCTION        0.67          0.850        0.000
  J29                  JUNCTION        0.67          0.850        0.000
  J30                  JUNCTION        0.67          0.850        0.000
  J31                  JUNCTION        0.67          0.850        0.000
  J33                  JUNCTION        0.67          0.850        0.000
  J32                  JUNCTION        0.67          0.850        0.000
  J28                  JUNCTION        0.67          0.850        0.000
  
  
  *********************
  Node Flooding Summary
  *********************
  
  Flooding refers to all water that overflows a node, whether it ponds or not.
  --------------------------------------------------------------------------
                                                             Total   Maximum
                                 Maximum   Time of Max       Flood    Ponded
                        Hours       Rate    Occurrence      Volume     Depth
  Node                 Flooded       CMS   days hr:min    10^6 ltr    Meters
  --------------------------------------------------------------------------
  J7                      0.67    61.254      0  00:30     102.072     0.000
  J13                     0.67     5.072      0  00:30       9.078     0.000
  J19                     0.67   233.033      0  00:30     413.176     0.000
  J25                     0.67    29.728      0  00:30      49.250     0.000
  J1                      0.67    20.178      0  00:30      36.083     0.000
  J2                      0.67    14.699      0  00:30      24.732     0.000
  J3                      0.67    19.847      0  00:05       8.769     0.000
  J4                      0.67    43.755      0  00:30      75.339     0.000
  J5                      0.67    35.771      0  00:30      60.816     0.000
  J6                      0.67    15.879      0  00:25      28.400     0.000
  J8                      0.67    24.432      0  00:30      43.691     0.000
  J9                      0.67    10.762      0  00:30      18.524     0.000
  J10                     0.67    15.946      0  00:30      27.870     0.000
  J11                     0.67    17.564      0  00:30      29.975     0.000
  J12                     0.67    18.446      0  00:30      31.302     0.000
  J14                     0.67    15.790      0  00:25      28.237     0.000
  J15                     0.67    22.405      0  00:30      39.626     0.000
  J16                     0.67    13.434      0  00:25      23.831     0.000
  J17                     0.67    11.189      0  00:05       6.171     0.000
  J18                     0.67     7.787      0  00:05       4.208     0.000
  J20                     0.67    44.161      0  00:30      78.654     0.000
  J21                     0.67    14.575      0  00:30      26.064     0.000
  J22                     0.67    29.579      0  00:30      52.117     0.000
  J23                     0.67    15.491      0  00:30      26.736     0.000
  J24                     0.67     3.603      0  00:05       5.213     0.000
  J26                     0.67    12.874      0  00:30      23.022     0.000
  J27                     0.67    11.521      0  00:25      20.400     0.000
  J29                     0.67    18.329      0  00:30      31.315     0.000
  J30                     0.67    22.831      0  00:05       8.428     0.000
  J31                     0.67    55.557      0  00:30      89.510     0.000
  J33                     0.67    18.222      0  00:30      32.594     0.000
  J32                     0.67     8.174      0  00:30      14.449     0.000
  J28                     0.67    13.525      0  00:25      23.977     0.000
  
  
  ***********************
  Outfall Loading Summary
  ***********************
  
  -----------------------------------------------------------
                         Flow       Avg       Max       Total
                         Freq      Flow      Flow      Volume
  Outfall Node           Pcnt       CMS       CMS    10^6 ltr
  -----------------------------------------------------------
  OF                   100.00     7.312     7.984      16.644
  -----------------------------------------------------------
  System               100.00     7.312     7.984      16.644
  
  
  ********************
  Link Flow Summary
  ********************
  
  -----------------------------------------------------------------------------
                                 Maximum  Time of Max   Maximum    Max/    Max/
                                  |Flow|   Occurrence   |Veloc|    Full    Full
  Link                 Type          CMS  days hr:min     m/sec    Flow   Depth
  -----------------------------------------------------------------------------
  P1                   PUMP        0.000     0  00:00                          
  C23                  CONDUIT     0.000     0  00:00      0.00    0.00    1.00
  C24                  CONDUIT     0.629     0  00:05      0.29    5.45    1.00
  C25                  CONDUIT     0.000     0  00:00      0.00    0.00    1.00
  C26                  CONDUIT     0.304     0  00:05      0.14    2.38    1.00
  C27                  CONDUIT     0.000     0  00:00      0.00    0.00    1.00
  C28                  CONDUIT     1.529     0  00:05      0.71   10.54    1.00
  C29                  CONDUIT     0.000     0  00:00      0.00    0.00    1.00
  C30                  CONDUIT     0.224     0  00:05      0.10    1.97    1.00
  C31                  CONDUIT     0.243     0  00:05      0.11    2.13    1.00
  C32                  CONDUIT     4.680     0  00:05      2.19   30.25    1.00
  C33                  CONDUIT    11.856     0  00:05      5.54   69.37    1.00
  C34                  CONDUIT     0.273     0  00:05      0.13    2.18    1.00
  C35                  CONDUIT     0.000     0  00:05      0.00    0.00    1.00
  C36                  CONDUIT     0.000     0  00:05      0.00    0.00    1.00
  C37                  CONDUIT     1.538     0  00:05      0.72   10.56    1.00
  C38                  CONDUIT     1.945     0  00:05      0.91   13.56    1.00
  C39                  CONDUIT     4.777     0  00:05      2.23   30.28    1.00
  C40                  CONDUIT     0.000     0  00:00      0.00    0.00    1.00
  C41                  CONDUIT     0.000     0  00:00      0.00    0.00    1.00
  C43                  CONDUIT     0.000     0  00:00      0.00    0.00    1.00
  C44                  CONDUIT     0.269     0  00:05      0.13    2.29    1.00
  C45                  CONDUIT    10.912     0  00:05      5.10   93.63    1.00
  C46                  CONDUIT    11.699     0  00:05      5.47   96.95    1.00
  C48                  CONDUIT     0.000     0  00:05      0.00    0.00    1.00
  C42                  CONDUIT     3.161     0  00:05      1.48   25.06    1.00
  C50                  CONDUIT     0.294     0  00:05      0.14    2.84    1.00
  C49                  CONDUIT     1.210     0  00:05      0.57   10.56    1.00
  C01                  CONDUIT     0.000     0  00:00      0.00    0.00    1.00
  C02                  CONDUIT     0.000     0  00:00      0.00    0.00    1.00
  C03                  CONDUIT     0.428     0  00:05      0.20    3.42    1.00
  C04                  CONDUIT     0.259     0  00:05      0.12    2.04    1.00
  C05                  CONDUIT     0.459     0  00:05      0.21    3.66    1.00
  C06                  CONDUIT     0.000     0  00:00      0.00    0.00    1.00
  C07                  CONDUIT     0.000     0  00:00      0.00    0.00    1.00
  C08                  CONDUIT     0.000     0  00:00      0.00    0.00    1.00
  C09                  CONDUIT     0.618     0  00:05      0.29    5.41    1.00
  C10                  CONDUIT     0.721     0  00:05      0.34    5.75    1.00
  C11                  CONDUIT     0.000     0  00:00      0.00    0.00    1.00
  C12                  CONDUIT     2.741     0  00:05      1.28   23.62    1.00
  C13                  CONDUIT     2.781     0  00:05      1.30   24.20    1.00
  C14                  CONDUIT     3.184     0  00:05      1.49   25.30    1.00
  C15                  CONDUIT     0.466     0  00:05      0.22    3.70    1.00
  C16                  CONDUIT     1.148     0  00:05      0.54   10.08    1.00
  C17                  CONDUIT     5.268     0  00:05      2.46   46.49    1.00
  C18                  CONDUIT     0.000     0  00:00      0.00    0.00    1.00
  C19                  CONDUIT     0.000     0  00:00      0.00    0.00    1.00
  C20                  CONDUIT     5.391     0  00:05      2.52   48.00    1.00
  C21                  CONDUIT     0.000     0  00:05      0.00    0.00    1.00
  C22                  CONDUIT     0.085     0  00:05      0.04    0.67    1.00
  C47                  CONDUIT     0.000     0  00:00      0.00    0.00    1.00
  Cout                 CONDUIT     7.984     0  00:05      3.85   63.04    0.93
  
  
  ***************************
  Flow Classification Summary
  ***************************
  
  -------------------------------------------------------------------------------------
                      Adjusted    ---------- Fraction of Time in Flow Class ---------- 
                       /Actual         Up    Down  Sub   Sup   Up    Down  Norm  Inlet 
  Conduit               Length    Dry  Dry   Dry   Crit  Crit  Crit  Crit  Ltd   Ctrl  
  -------------------------------------------------------------------------------------
  C23                     1.00   0.00  0.00  0.00  1.00  0.00  0.00  0.00  0.00  0.00
  C24                     1.00   0.00  0.00  0.00  1.00  0.00  0.00  0.00  0.00  0.00
  C25                     1.00   0.00  0.00  0.00  1.00  0.00  0.00  0.00  0.00  0.00
  C26                     1.00   0.00  0.00  0.00  1.00  0.00  0.00  0.00  0.00  0.00
  C27                     1.00   0.00  0.00  0.00  1.00  0.00  0.00  0.00  0.00  0.00
  C28                     1.00   0.00  0.00  0.00  1.00  0.00  0.00  0.00  0.00  0.00
  C29                     1.00   0.00  0.00  0.00  1.00  0.00  0.00  0.00  0.00  0.00
  C30                     1.00   0.00  0.00  0.00  1.00  0.00  0.00  0.00  0.00  0.00
  C31                     1.00   0.00  0.00  0.00  1.00  0.00  0.00  0.00  0.00  0.00
  C32                     1.00   0.00  0.00  0.00  1.00  0.00  0.00  0.00  0.00  0.00
  C33                     1.00   0.00  0.00  0.00  1.00  0.00  0.00  0.00  0.00  0.00
  C34                     1.00   0.00  0.00  0.00  1.00  0.00  0.00  0.00  0.00  0.00
  C35                     1.00   0.00  0.00  0.00  1.00  0.00  0.00  0.00  0.00  0.00
  C36                     1.00   0.00  0.00  0.00  1.00  0.00  0.00  0.00  0.00  0.00
  C37                     1.00   0.00  0.00  0.00  1.00  0.00  0.00  0.00  0.00  0.00
  C38                     1.00   0.00  0.00  0.00  1.00  0.00  0.00  0.00  0.00  0.00
  C39                     1.00   0.00  0.00  0.00  1.00  0.00  0.00  0.00  0.00  0.00
  C40                     1.00   0.00  0.00  0.00  1.00  0.00  0.00  0.00  0.00  0.00
  C41                     1.00   0.00  0.00  0.00  1.00  0.00  0.00  0.00  0.00  0.00
  C43                     1.00   0.00  0.00  0.00  1.00  0.00  0.00  0.00  0.00  0.00
  C44                     1.00   0.00  0.00  0.00  1.00  0.00  0.00  0.00  0.00  0.00
  C45                     1.00   0.00  0.00  0.00  1.00  0.00  0.00  0.00  0.00  0.00
  C46                     1.00   0.00  0.00  0.00  1.00  0.00  0.00  0.00  0.00  0.00
  C48                     1.00   0.00  0.00  0.00  1.00  0.00  0.00  0.00  0.00  0.00
  C42                     1.00   0.00  0.00  0.00  1.00  0.00  0.00  0.00  0.00  0.00
  C50                     1.00   0.00  0.00  0.00  1.00  0.00  0.00  0.00  0.00  0.00
  C49                     1.00   0.00  0.00  0.00  1.00  0.00  0.00  0.00  0.00  0.00
  C01                     1.00   0.00  0.00  0.00  1.00  0.00  0.00  0.00  0.00  0.00
  C02                     1.00   0.00  0.00  0.00  1.00  0.00  0.00  0.00  0.00  0.00
  C03                     1.00   0.00  0.00  0.00  1.00  0.00  0.00  0.00  0.00  0.00
  C04                     1.00   0.00  0.00  0.00  1.00  0.00  0.00  0.00  0.00  0.00
  C05                     1.00   0.00  0.00  0.00  1.00  0.00  0.00  0.00  0.00  0.00
  C06                     1.00   0.00  0.00  0.00  1.00  0.00  0.00  0.00  0.00  0.00
  C07                     1.00   0.00  0.00  0.00  1.00  0.00  0.00  0.00  0.00  0.00
  C08                     1.00   0.00  0.00  0.00  1.00  0.00  0.00  0.00  0.00  0.00
  C09                     1.00   0.00  0.00  0.00  1.00  0.00  0.00  0.00  0.00  0.00
  C10                     1.00   0.00  0.00  0.00  1.00  0.00  0.00  0.00  0.00  0.00
  C11                     1.00   0.00  0.00  0.00  1.00  0.00  0.00  0.00  0.00  0.00
  C12                     1.00   0.00  0.00  0.00  1.00  0.00  0.00  0.00  0.00  0.00
  C13                     1.00   0.00  0.00  0.00  1.00  0.00  0.00  0.00  0.00  0.00
  C14                     1.00   0.00  0.00  0.00  1.00  0.00  0.00  0.00  0.00  0.00
  C15                     1.00   0.00  0.00  0.00  1.00  0.00  0.00  0.00  0.00  0.00
  C16                     1.00   0.00  0.00  0.00  1.00  0.00  0.00  0.00  0.00  0.00
  C17                     1.00   0.00  0.00  0.00  1.00  0.00  0.00  0.00  0.00  0.00
  C18                     1.00   0.00  0.00  0.00  1.00  0.00  0.00  0.00  0.00  0.00
  C19                     1.00   0.00  0.00  0.00  1.00  0.00  0.00  0.00  0.00  0.00
  C20                     1.00   0.00  0.00  0.00  1.00  0.00  0.00  0.00  0.00  0.00
  C21                     1.00   0.00  0.00  0.00  1.00  0.00  0.00  0.00  0.00  0.00
  C22                     1.00   0.00  0.00  0.00  1.00  0.00  0.00  0.00  0.00  0.00
  C47                     1.00   0.00  0.00  0.00  1.00  0.00  0.00  0.00  0.00  0.00
  Cout                    1.00   0.00  0.00  0.00  1.00  0.00  0.00  0.00  0.00  0.00
  
  
  *************************
  Conduit Surcharge Summary
  *************************
  
  ----------------------------------------------------------------------------
                                                           Hours        Hours 
                         --------- Hours Full --------   Above Full   Capacity
  Conduit                Both Ends  Upstream  Dnstream   Normal Flow   Limited
  ----------------------------------------------------------------------------
  C23                         0.67      0.67      0.67      0.01         0.01
  C24                         0.67      0.67      0.67      0.67         0.01
  C25                         0.67      0.67      0.67      0.01         0.01
  C26                         0.67      0.67      0.67      0.58         0.01
  C27                         0.67      0.67      0.67      0.01         0.01
  C28                         0.67      0.67      0.67      0.67         0.01
  C29                         0.67      0.67      0.67      0.01         0.01
  C30                         0.67      0.67      0.67      0.56         0.01
  C31                         0.67      0.67      0.67      0.59         0.01
  C32                         0.67      0.67      0.67      0.67         0.01
  C33                         0.67      0.67      0.67      0.67         0.01
  C34                         0.67      0.67      0.67      0.55         0.01
  C35                         0.67      0.67      0.67      0.01         0.01
  C36                         0.67      0.67      0.67      0.01         0.01
  C37                         0.67      0.67      0.67      0.67         0.01
  C38                         0.67      0.67      0.67      0.67         0.01
  C39                         0.67      0.67      0.67      0.67         0.01
  C40                         0.67      0.67      0.67      0.01         0.01
  C41                         0.67      0.67      0.67      0.01         0.01
  C43                         0.67      0.67      0.67      0.01         0.01
  C44                         0.67      0.67      0.67      0.61         0.01
  C45                         0.67      0.67      0.67      0.67         0.01
  C46                         0.67      0.67      0.67      0.67         0.01
  C48                         0.67      0.67      0.67      0.01         0.01
  C42                         0.67      0.67      0.67      0.67         0.01
  C50                         0.67      0.67      0.67      0.67         0.01
  C49                         0.67      0.67      0.67      0.67         0.01
  C01                         0.67      0.67      0.67      0.01         0.01
  C02                         0.67      0.67      0.67      0.01         0.01
  C03                         0.67      0.67      0.67      0.67         0.01
  C04                         0.67      0.67      0.67      0.52         0.01
  C05                         0.67      0.67      0.67      0.67         0.01
  C06                         0.67      0.67      0.67      0.01         0.01
  C07                         0.67      0.67      0.67      0.01         0.01
  C08                         0.67      0.67      0.67      0.01         0.01
  C09                         0.67      0.67      0.67      0.67         0.01
  C10                         0.67      0.67      0.67      0.67         0.01
  C11                         0.67      0.67      0.67      0.01         0.01
  C12                         0.67      0.67      0.67      0.67         0.01
  C13                         0.67      0.67      0.67      0.67         0.01
  C14                         0.67      0.67      0.67      0.67         0.01
  C15                         0.67      0.67      0.67      0.67         0.01
  C16                         0.67      0.67      0.67      0.67         0.01
  C17                         0.67      0.67      0.67      0.67         0.01
  C18                         0.67      0.67      0.67      0.01         0.01
  C19                         0.67      0.67      0.67      0.01         0.01
  C20                         0.67      0.67      0.67      0.67         0.01
  C21                         0.67      0.67      0.67      0.01         0.01
  C22                         0.67      0.67      0.67      0.01         0.01
  C47                         0.67      0.67      0.67      0.01         0.01
  Cout                        0.01      0.67      0.01      0.67         0.01
  
  
  ***************
  Pumping Summary
  ***************
  
  ---------------------------------------------------------------------------------------------------------
                                                  Min       Avg       Max     Total     Power    % Time Off
                        Percent   Number of      Flow      Flow      Flow    Volume     Usage    Pump Curve
  Pump                 Utilized   Start-Ups       CMS       CMS       CMS  10^6 ltr     Kw-hr    Low   High
  ---------------------------------------------------------------------------------------------------------
  P1                       0.00           0      0.00      0.00      0.00     0.000      0.00    0.0    0.0
  

  Analysis begun on:  Mon Dec  2 16:53:09 2024
  Analysis ended on:  Mon Dec  2 16:53:09 2024
  Total elapsed time: < 1 sec