
  EPA STORM WATER MANAGEMENT MODEL - VERSION 5.2 (Build 5.2.4)
  PYSWMM TOOLKIT API - VERSION v1.0 (2023-11-27)
  ------------------------------------------------------------

  WARNING 04: minimum elevation drop used for Conduit C23
  WARNING 04: minimum elevation drop used for Conduit C24
  WARNING 04: minimum elevation drop used for Conduit C25
  WARNING 04: minimum elevation drop used for Conduit C26
  WARNING 04: minimum elevation drop used for Conduit C27
  WARNING 04: minimum elevation drop used for Conduit C28
  WARNING 04: minimum elevation drop used for Conduit C29
  WARNING 04: minimum elevation drop used for Conduit C30
  WARNING 04: minimum elevation drop used for Conduit C31
  WARNING 04: minimum elevation drop used for Conduit C32
  WARNING 04: minimum elevation drop used for Conduit C33
  WARNING 04: minimum elevation drop used for Conduit C34
  WARNING 04: minimum elevation drop used for Conduit C35
  WARNING 04: minimum elevation drop used for Conduit C36
  WARNING 04: minimum elevation drop used for Conduit C37
  WARNING 04: minimum elevation drop used for Conduit C38
  WARNING 04: minimum elevation drop used for Conduit C39
  WARNING 04: minimum elevation drop used for Conduit C40
  WARNING 04: minimum elevation drop used for Conduit C41
  WARNING 04: minimum elevation drop used for Conduit C43
  WARNING 04: minimum elevation drop used for Conduit C44
  WARNING 04: minimum elevation drop used for Conduit C45
  WARNING 04: minimum elevation drop used for Conduit C46
  WARNING 04: minimum elevation drop used for Conduit C48
  WARNING 04: minimum elevation drop used for Conduit C42
  WARNING 04: minimum elevation drop used for Conduit C50
  WARNING 04: minimum elevation drop used for Conduit C49
  WARNING 04: minimum elevation drop used for Conduit C01
  WARNING 04: minimum elevation drop used for Conduit C02
  WARNING 04: minimum elevation drop used for Conduit C03
  WARNING 04: minimum elevation drop used for Conduit C04
  WARNING 04: minimum elevation drop used for Conduit C05
  WARNING 04: minimum elevation drop used for Conduit C06
  WARNING 04: minimum elevation drop used for Conduit C07
  WARNING 04: minimum elevation drop used for Conduit C08
  WARNING 04: minimum elevation drop used for Conduit C09
  WARNING 04: minimum elevation drop used for Conduit C10
  WARNING 04: minimum elevation drop used for Conduit C11
  WARNING 04: minimum elevation drop used for Conduit C12
  WARNING 04: minimum elevation drop used for Conduit C13
  WARNING 04: minimum elevation drop used for Conduit C14
  WARNING 04: minimum elevation drop used for Conduit C15
  WARNING 04: minimum elevation drop used for Conduit C16
  WARNING 04: minimum elevation drop used for Conduit C17
  WARNING 04: minimum elevation drop used for Conduit C18
  WARNING 04: minimum elevation drop used for Conduit C19
  WARNING 04: minimum elevation drop used for Conduit C20
  WARNING 04: minimum elevation drop used for Conduit C21
  WARNING 04: minimum elevation drop used for Conduit C22
  WARNING 04: minimum elevation drop used for Conduit C47
  WARNING 04: minimum elevation drop used for Conduit Cout
  
  ****************
  Analysis Options
  ****************
  Flow Units ............... CMS
  Process Models:
    Rainfall/Runoff ........ YES
    RDII ................... NO
    Snowmelt ............... NO
    Groundwater ............ NO
    Flow Routing ........... YES
    Ponding Allowed ........ NO
    Water Quality .......... NO
  Infiltration Method ...... HORTON
  Flow Routing Method ...... DYNWAVE
  Surcharge Method ......... EXTRAN
  Starting Date ............ 10/19/2022 12:00:00
  Ending Date .............. 10/19/2022 12:50:00
  Antecedent Dry Days ...... 0.0
  Report Time Step ......... 00:10:00
  Wet Time Step ............ 00:05:00
  Dry Time Step ............ 01:00:00
  Routing Time Step ........ 300.00 sec
  Variable Time Step ....... YES
  Maximum Trials ........... 8
  Number of Threads ........ 1
  Head Tolerance ........... 0.001524 m
  
  
  *********************
  Rainfall File Summary
  *********************
  Station    First        Last         Recording   Periods    Periods    Periods
  ID         Date         Date         Frequency  w/Precip    Missing    Malfunc.
  -------------------------------------------------------------------------------
  172        10/19/2022   10/19/2022      10 min         6          0          0

  
  
  **************************        Volume         Depth
  Runoff Quantity Continuity     hectare-m            mm
  **************************     ---------       -------
  Total Precipitation ......       101.585      1015.894
  Evaporation Loss .........         0.000         0.000
  Infiltration Loss ........         0.000         0.000
  Surface Runoff ...........        96.425       964.284
  Final Storage ............         6.061        60.613
  Continuity Error (%) .....        -0.886
  
  
  **************************        Volume        Volume
  Flow Routing Continuity        hectare-m      10^6 ltr
  **************************     ---------     ---------
  Dry Weather Inflow .......         0.000         0.000
  Wet Weather Inflow .......        94.870       948.707
  Groundwater Inflow .......         0.000         0.000
  RDII Inflow ..............         0.000         0.000
  External Inflow ..........         0.000         0.000
  External Outflow .........         2.104        21.044
  Flooding Loss ............        91.291       912.916
  Evaporation Loss .........         0.000         0.000
  Exfiltration Loss ........         0.000         0.000
  Initial Stored Volume ....         0.046         0.463
  Final Stored Volume ......         1.883        18.831
  Continuity Error (%) .....        -0.382
  
  
  *************************
  Highest Continuity Errors
  *************************
  Node J17 (-22.11%)
  Node J30 (-10.64%)
  Node J18 (7.62%)
  Node J3 (-5.61%)
  Node J24 (5.09%)
  
  
  ***************************
  Time-Step Critical Elements
  ***************************
  Link Cout (98.98%)
  
  
  ********************************
  Highest Flow Instability Indexes
  ********************************
  Link C20 (5)
  Link C31 (2)
  Link C33 (2)
  Link C35 (2)
  Link C36 (2)
  
  
  *********************************
  Most Frequent Nonconverging Nodes
  *********************************
  Node J17 (1.02%)
  Node OF (1.02%)
  Node J10 (0.51%)
  Node J11 (0.51%)
  Node J2 (0.51%)
  
  
  *************************
  Routing Time Step Summary
  *************************
  Minimum Time Step           :     4.94 sec
  Average Time Step           :    15.30 sec
  Maximum Time Step           :   300.00 sec
  % of Time in Steady State   :     0.00
  Average Iterations per Step :     2.08
  % of Steps Not Converging   :     1.02
  Time Step Frequencies       :
     300.000 - 83.462 sec      :     0.51 %
     83.462 - 23.220 sec      :     0.00 %
     23.220 -  6.460 sec      :    98.46 %
      6.460 -  1.797 sec      :     1.03 %
      1.797 -  0.500 sec      :     0.00 %
  
  
  ***************************
  Subcatchment Runoff Summary
  ***************************
  
  ------------------------------------------------------------------------------------------------------------------------------
                            Total      Total      Total      Total     Imperv       Perv      Total       Total     Peak  Runoff
                           Precip      Runon       Evap      Infil     Runoff     Runoff     Runoff      Runoff   Runoff   Coeff
  Subcatchment                 mm         mm         mm         mm         mm         mm         mm    10^6 ltr      CMS
  ------------------------------------------------------------------------------------------------------------------------------
  S1                      1015.89       0.00       0.00       0.00      10.06    1005.84    1015.89      256.27   213.60   1.000
  S2                      1015.89       0.00       0.00       0.00       9.24    1007.59    1016.84        7.90     6.58   1.001
  S3                      1015.89       0.00       0.00       0.00       9.24    1006.65    1015.89        2.10     1.75   1.000
  S4                      1015.89       0.00       0.00       0.00       9.24    1006.65    1015.89        2.08     1.74   1.000
  S5                      1015.89       0.00       0.00       0.00       9.24    1006.65    1015.89        3.04     2.53   1.000
  S6                      1015.89       0.00       0.00       0.00       9.24    1006.65    1015.89        8.37     6.98   1.000
  S7                      1015.89       0.00       0.00       0.00       9.24    1006.65    1015.89        1.57     1.31   1.000
  S8                      1015.89       0.00       0.00       0.00       9.24    1006.65    1015.89        4.95     4.12   1.000
  S9                      1015.89       0.00       0.00       0.00       9.24    1006.65    1015.89        6.12     5.10   1.000
  S10                     1015.89       0.00       0.00       0.00       0.00    1006.65    1006.65        1.42     1.18   0.991
  S11                     1015.89       0.00       0.00       0.00       9.24     987.90     997.14       14.59    12.29   0.982
  S12                     1015.89       0.00       0.00       0.00       9.24    1006.65    1015.89        8.82     7.35   1.000
  S13                     1015.89       0.00       0.00       0.00       0.00    1006.65    1006.65        8.50     7.08   0.991
  S14                     1015.89       0.00       0.00       0.00       8.53    1007.36    1015.89        8.16     6.80   1.000
  S15                     1015.89       0.00       0.00       0.00       8.53    1007.36    1015.89        7.62     6.35   1.000
  S16                     1015.89       0.00       0.00       0.00       7.82    1007.30    1015.13       17.93    14.95   0.999
  S17                     1015.89       0.00       0.00       0.00       7.82     945.26     953.08       32.45    27.04   0.938
  S18                     1015.89       0.00       0.00       0.00       7.82    1008.08    1015.90        1.31     1.09   1.000
  S19                     1015.89       0.00       0.00       0.00       7.82       0.00       7.82        0.02     0.02   0.008
  S20                     1015.89       0.00       0.00       0.00       7.82    1008.10    1015.92        1.04     0.86   1.000
  S21                     1015.89       0.00       0.00       0.00       7.82    1000.43    1008.25       16.72    14.01   0.992
  S22                     1015.89       0.00       0.00       0.00       7.82    1008.06    1015.88        0.34     0.28   1.000
  S23                     1015.89       0.00       0.00       0.00       7.82    1008.07    1015.89        0.40     0.33   1.000
  S24                     1015.89       0.00       0.00       0.00       7.82    1008.07    1015.89        0.50     0.41   1.000
  S25                     1015.89       0.00       0.00       0.00       7.82    1008.07    1015.89        0.60     0.50   1.000
  S26                     1015.89       0.00       0.00       0.00       7.82    1008.07    1015.89        0.70     0.58   1.000
  S27                     1015.89       0.00       0.00       0.00       7.82    1008.48    1016.30        8.45     7.04   1.000
  S28                     1015.89       0.00       0.00       0.00       7.82    1001.82    1009.64        8.97     7.51   0.994
  S29                     1015.89       0.00       0.00       0.00       7.82    1007.97    1015.80        0.93     0.78   1.000
  S30                     1015.89       0.00       0.00       0.00       7.82     921.91     929.73       59.22    48.54   0.915
  S31                     1015.89       0.00       0.00       0.00       8.13    1007.77    1015.89       13.77    11.47   1.000
  S32                     1015.89       0.00       0.00       0.00       8.13    1007.77    1015.89        4.24     3.53   1.000
  S33                     1015.89       0.00       0.00       0.00       9.55    1006.34    1015.89        3.16     2.63   1.000
  S34                     1015.89       0.00       0.00       0.00       9.55    1006.34    1015.89        3.34     2.79   1.000
  S35                     1015.89       0.00       0.00       0.00       9.24    1006.65    1015.89        4.08     3.40   1.000
  S36                     1015.89       0.00       0.00       0.00       9.24    1006.65    1015.89        1.68     1.40   1.000
  S37                     1015.89       0.00       0.00       0.00       9.24    1006.65    1015.89        3.66     3.05   1.000
  S38                     1015.89       0.00       0.00       0.00       9.24    1006.65    1015.89        0.16     0.14   1.000
  S39                     1015.89       0.00       0.00       0.00       9.24    1006.65    1015.89        4.17     3.47   1.000
  S40                     1015.89       0.00       0.00       0.00       9.24    1006.65    1015.89        1.43     1.19   1.000
  S41                     1015.89       0.00       0.00       0.00       9.24    1006.65    1015.89        2.31     1.92   1.000
  S42                     1015.89       0.00       0.00       0.00       9.24    1006.65    1015.89        3.21     2.68   1.000
  S43                     1015.89       0.00       0.00       0.00       9.24    1006.65    1015.89        7.31     6.10   1.000
  S44                     1015.89       0.00       0.00       0.00       9.24    1006.65    1015.89        5.30     4.42   1.000
  S45                     1015.89       0.00       0.00       0.00       9.24    1006.65    1015.89        0.54     0.45   1.000
  S46                     1015.89       0.00       0.00       0.00       9.24    1006.65    1015.89        4.92     4.10   1.000
  S47                     1015.89       0.00       0.00       0.00       9.24    1006.65    1015.89        9.94     8.28   1.000
  S48                     1015.89       0.00       0.00       0.00       9.24    1006.65    1015.89       11.48     9.57   1.000
  S49                     1015.89       0.00       0.00       0.00       9.24    1006.65    1015.89        6.98     5.82   1.000
  S50                     1015.89       0.00       0.00       0.00       9.24    1006.65    1015.89        5.75     4.79   1.000
  S51                     1015.89       0.00       0.00       0.00       9.24    1006.65    1015.89        3.39     2.83   1.000
  S52                     1015.89       0.00       0.00       0.00       9.24    1006.65    1015.89        8.99     7.49   1.000
  S53                     1015.89       0.00       0.00       0.00       9.24    1000.95    1010.20       12.30    10.30   0.994
  S54                     1015.89       0.00       0.00       0.00       9.24    1007.61    1016.86        4.65     3.87   1.001
  S55                     1015.89       0.00       0.00       0.00       9.24    1006.65    1015.89        0.39     0.32   1.000
  S56                     1015.89       0.00       0.00       0.00       9.24    1006.64    1015.88        0.39     0.32   1.000
  S57                     1015.89       0.00       0.00       0.00       9.24    1006.65    1015.89        5.25     4.38   1.000
  S58                     1015.89       0.00       0.00       0.00       9.24    1006.65    1015.89        6.75     5.62   1.000
  S59                     1015.89       0.00       0.00       0.00       9.24    1006.65    1015.89        6.55     5.46   1.000
  S60                     1015.89       0.00       0.00       0.00       7.82    1008.92    1016.74        4.00     3.33   1.001
  S61                     1015.89       0.00       0.00       0.00       7.82       0.00       7.82        0.03     0.02   0.008
  S62                     1015.89       0.00       0.00       0.00       7.82     904.46     912.28       48.89    39.50   0.898
  S63                     1015.89       0.00       0.00       0.00       7.82    1008.07    1015.89        9.55     7.96   1.000
  S64                     1015.89       0.00       0.00       0.00       7.82    1008.07    1015.89       25.85    21.55   1.000
  S65                     1015.89       0.00       0.00       0.00       7.82    1008.07    1015.89        4.12     3.44   1.000
  S66                     1015.89       0.00       0.00       0.00       7.82    1008.07    1015.89        6.65     5.55   1.000
  S67                     1015.89       0.00       0.00       0.00       7.82    1008.07    1015.89       12.43    10.36   1.000
  S68                     1015.89       0.00       0.00       0.00       7.82    1008.07    1015.89       14.58    12.15   1.000
  S69                     1015.89       0.00       0.00       0.00       7.82       0.00       7.82        0.19     0.16   0.008
  S70                     1015.89       0.00       0.00       0.00       7.82     999.77    1007.59       26.37    22.11   0.992
  S71                     1015.89       0.00       0.00       0.00       9.24    1006.65    1015.89       14.94    12.46   1.000
  S72                     1015.89       0.00       0.00       0.00       7.82    1008.00    1015.83        5.04     4.20   1.000
  S73                     1015.89       0.00       0.00       0.00       7.82    1008.07    1015.89       21.29    17.75   1.000
  S74                     1015.89       0.00       0.00       0.00       7.82       0.00       7.82        0.05     0.04   0.008
  S75                     1015.89       0.00       0.00       0.00       7.82    1008.07    1015.89        0.68     0.57   1.000
  S76                     1015.89       0.00       0.00       0.00       7.82    1008.07    1015.89       13.42    11.19   1.000
  S77                     1015.89       0.00       0.00       0.00       7.82    1008.07    1015.89       10.86     9.05   1.000
  S78                     1015.89       0.00       0.00       0.00       7.82    1008.07    1015.89        7.87     6.56   1.000
  S79                     1015.89       0.00       0.00       0.00       9.24    1006.65    1015.89        6.90     5.75   1.000
  S80                     1015.89       0.00       0.00       0.00       7.82    1008.44    1016.26        2.80     2.34   1.000
  S81                     1015.89       0.00       0.00       0.00       7.82    1008.07    1015.89       11.49     9.58   1.000
  S82                     1015.89       0.00       0.00       0.00       7.82    1008.07    1015.89       11.22     9.35   1.000
  S83                     1015.89       0.00       0.00       0.00       7.82    1008.07    1015.89        7.21     6.01   1.000
  S84                     1015.89       0.00       0.00       0.00       9.24    1006.65    1015.89        4.71     3.93   1.000
  S85                     1015.89       0.00       0.00       0.00       9.24    1003.62    1012.86       12.52    10.46   0.997
  S86                     1015.89       0.00       0.00       0.00       0.00    1006.65    1006.65       11.65     9.71   0.991
  S87                     1015.89       0.00       0.00       0.00       9.24    1006.65    1015.89       12.62    10.52   1.000
  S88                     1015.89       0.00       0.00       0.00       9.24    1006.65    1015.89        2.28     1.90   1.000
  S89                     1015.89       0.00       0.00       0.00       9.24    1006.65    1015.89       10.27     8.56   1.000
  S90                     1015.89       0.00       0.00       0.00       0.00    1006.65    1006.65        4.94     4.12   0.991
  S91                     1015.89       0.00       0.00       0.00       9.24    1006.65    1015.89        1.68     1.40   1.000
  
  
  ******************
  Node Depth Summary
  ******************
  
  ---------------------------------------------------------------------------------
                                 Average  Maximum  Maximum  Time of Max    Reported
                                   Depth    Depth      HGL   Occurrence   Max Depth
  Node                 Type       Meters   Meters   Meters  days hr:min      Meters
  ---------------------------------------------------------------------------------
  J7                   JUNCTION     2.49     2.50     2.50     0  00:05        2.50
  J13                  JUNCTION     2.49     2.50     2.50     0  00:05        2.50
  J19                  JUNCTION     2.49     2.50     2.50     0  00:05        2.50
  J25                  JUNCTION     2.49     2.50     2.50     0  00:05        2.50
  J1                   JUNCTION     2.49     2.50     2.50     0  00:05        2.50
  J2                   JUNCTION     2.49     2.50     2.50     0  00:05        2.50
  J3                   JUNCTION     2.49     2.50     2.50     0  00:05        2.50
  J4                   JUNCTION     2.49     2.50     2.50     0  00:05        2.50
  J5                   JUNCTION     2.49     2.50     2.50     0  00:05        2.50
  J6                   JUNCTION     2.49     2.50     2.50     0  00:05        2.50
  J8                   JUNCTION     2.49     2.50     2.50     0  00:05        2.50
  J9                   JUNCTION     2.49     2.50     2.50     0  00:05        2.50
  J10                  JUNCTION     2.49     2.50     2.50     0  00:05        2.50
  J11                  JUNCTION     2.49     2.50     2.50     0  00:05        2.50
  J12                  JUNCTION     2.49     2.50     2.50     0  00:05        2.50
  J14                  JUNCTION     2.49     2.50     2.50     0  00:05        2.50
  J15                  JUNCTION     2.49     2.50     2.50     0  00:05        2.50
  J16                  JUNCTION     2.49     2.50     2.50     0  00:05        2.50
  J17                  JUNCTION     2.49     2.50     2.50     0  00:05        2.50
  J18                  JUNCTION     2.49     2.50     2.50     0  00:05        2.50
  J20                  JUNCTION     2.49     2.50     2.50     0  00:05        2.50
  J21                  JUNCTION     2.49     2.50     2.50     0  00:05        2.50
  J22                  JUNCTION     2.49     2.50     2.50     0  00:05        2.50
  J23                  JUNCTION     2.49     2.50     2.50     0  00:05        2.50
  J24                  JUNCTION     2.49     2.50     2.50     0  00:05        2.50
  J26                  JUNCTION     2.49     2.50     2.50     0  00:05        2.50
  J27                  JUNCTION     2.49     2.50     2.50     0  00:05        2.50
  J29                  JUNCTION     2.49     2.50     2.50     0  00:05        2.50
  J30                  JUNCTION     2.49     2.50     2.50     0  00:05        2.50
  J31                  JUNCTION     2.49     2.50     2.50     0  00:05        2.50
  J33                  JUNCTION     2.49     2.50     2.50     0  00:05        2.50
  J32                  JUNCTION     2.49     2.50     2.50     0  00:05        2.50
  J28                  JUNCTION     2.49     2.50     2.50     0  00:05        2.50
  OF                   OUTFALL      1.36     1.41     1.41     0  00:05        1.37
  
  
  *******************
  Node Inflow Summary
  *******************
  
  -------------------------------------------------------------------------------------------------
                                  Maximum  Maximum                  Lateral       Total        Flow
                                  Lateral    Total  Time of Max      Inflow      Inflow     Balance
                                   Inflow   Inflow   Occurrence      Volume      Volume       Error
  Node                 Type           CMS      CMS  days hr:min    10^6 ltr    10^6 ltr     Percent
  -------------------------------------------------------------------------------------------------
  J7                   JUNCTION    53.511   53.511     0  00:30        63.8        63.8       0.678
  J13                  JUNCTION     4.831    4.831     0  00:30        5.71        5.71       0.810
  J19                  JUNCTION   228.928  228.928     0  00:30         271         271       1.615
  J25                  JUNCTION    27.040   27.371     0  00:30        31.6        32.9       0.619
  J1                   JUNCTION    19.217   19.217     0  00:30        22.7        22.7       0.951
  J2                   JUNCTION    14.437   15.005     0  00:25        17.1        19.8       2.632
  J3                   JUNCTION     0.644    3.500     0  00:05       0.761        3.24      -5.310
  J4                   JUNCTION    41.805   41.805     0  00:25        49.5        49.5       1.309
  J5                   JUNCTION    34.565   34.761     0  00:25        40.9        41.6       1.752
  J6                   JUNCTION    15.123   15.626     0  00:25        17.9          20       2.293
  J8                   JUNCTION    23.269   23.644     0  00:25        27.5        28.8       1.570
  J9                   JUNCTION    10.461   10.888     0  00:30        12.3        14.5       2.002
  J10                  JUNCTION    15.614   16.399     0  00:25        18.5        21.8       2.719
  J11                  JUNCTION    16.775   17.730     0  00:25        19.8        23.8       3.159
  J12                  JUNCTION    17.748   17.940     0  00:25          21        21.6       1.069
  J14                  JUNCTION    15.038   15.038     0  00:30        17.8        17.8       1.364
  J15                  JUNCTION    21.512   21.883     0  00:30        25.4        26.9       1.686
  J16                  JUNCTION    12.456   12.704     0  00:25        14.7        15.5       0.888
  J17                  JUNCTION     0.162    2.356     0  00:05       0.192        1.99     -18.107
  J18                  JUNCTION     0.567    1.382     0  00:05       0.671        1.71       8.249
  J20                  JUNCTION    41.972   41.972     0  00:30        49.5        49.5       1.697
  J21                  JUNCTION    13.881   13.881     0  00:30        16.4        16.4       1.540
  J22                  JUNCTION    28.464   28.584     0  00:30        33.5        33.9       1.021
  J23                  JUNCTION    14.952   15.641     0  00:30        17.7        21.7       3.483
  J24                  JUNCTION     1.972    2.228     0  00:25        2.33        3.36       5.366
  J26                  JUNCTION    12.261   12.475     0  00:25        14.5        15.2       1.736
  J27                  JUNCTION    10.754   11.574     0  00:25        12.7        16.9       4.415
  J29                  JUNCTION    17.638   18.442     0  00:25        20.9        24.4       2.752
  J30                  JUNCTION     0.000    1.754     0  00:05           0        1.64      -9.618
  J31                  JUNCTION    48.543   48.543     0  00:30        57.5        57.5       0.545
  J33                  JUNCTION    17.355   17.355     0  00:30        20.5        20.5       1.897
  J32                  JUNCTION     7.917    8.149     0  00:25        9.37        10.2       1.274
  J28                  JUNCTION    12.659   12.659     0  00:30          15          15       0.355
  OF                   OUTFALL      0.000    7.967     0  00:05           0          21       0.000
  
  
  **********************
  Node Surcharge Summary
  **********************
  
  Surcharging occurs when water rises above the top of the highest conduit.
  ---------------------------------------------------------------------
                                               Max. Height   Min. Depth
                                   Hours       Above Crown    Below Rim
  Node                 Type      Surcharged         Meters       Meters
  ---------------------------------------------------------------------
  J7                   JUNCTION        0.83          0.850        0.000
  J13                  JUNCTION        0.83          0.850        0.000
  J19                  JUNCTION        0.83          0.850        0.000
  J25                  JUNCTION        0.83          0.850        0.000
  J1                   JUNCTION        0.83          0.850        0.000
  J2                   JUNCTION        0.83          0.850        0.000
  J3                   JUNCTION        0.83          0.850        0.000
  J4                   JUNCTION        0.83          0.850        0.000
  J5                   JUNCTION        0.83          0.850        0.000
  J6                   JUNCTION        0.83          0.850        0.000
  J8                   JUNCTION        0.83          0.850        0.000
  J9                   JUNCTION        0.83          0.850        0.000
  J10                  JUNCTION        0.83          0.850        0.000
  J11                  JUNCTION        0.83          0.850        0.000
  J12                  JUNCTION        0.83          0.850        0.000
  J14                  JUNCTION        0.83          0.850        0.000
  J15                  JUNCTION        0.83          0.850        0.000
  J16                  JUNCTION        0.83          0.850        0.000
  J17                  JUNCTION        0.83          0.850        0.000
  J18                  JUNCTION        0.83          0.850        0.000
  J20                  JUNCTION        0.83          0.850        0.000
  J21                  JUNCTION        0.83          0.850        0.000
  J22                  JUNCTION        0.83          0.850        0.000
  J23                  JUNCTION        0.83          0.850        0.000
  J24                  JUNCTION        0.83          0.850        0.000
  J26                  JUNCTION        0.83          0.850        0.000
  J27                  JUNCTION        0.83          0.850        0.000
  J29                  JUNCTION        0.83          0.850        0.000
  J30                  JUNCTION        0.83          0.850        0.000
  J31                  JUNCTION        0.83          0.850        0.000
  J33                  JUNCTION        0.83          0.850        0.000
  J32                  JUNCTION        0.83          0.850        0.000
  J28                  JUNCTION        0.83          0.850        0.000
  
  
  *********************
  Node Flooding Summary
  *********************
  
  Flooding refers to all water that overflows a node, whether it ponds or not.
  --------------------------------------------------------------------------
                                                             Total   Maximum
                                 Maximum   Time of Max       Flood    Ponded
                        Hours       Rate    Occurrence      Volume     Depth
  Node                 Flooded       CMS   days hr:min    10^6 ltr    Meters
  --------------------------------------------------------------------------
  J7                      0.83    53.150      0  00:30      62.797     0.000
  J13                     0.83     4.638      0  00:30       4.907     0.000
  J19                     0.83   221.342      0  00:30     248.475     0.000
  J25                     0.83    27.072      0  00:30      31.741     0.000
  J1                      0.83    18.658      0  00:30      20.123     0.000
  J2                      0.83    14.737      0  00:25      18.683     0.000
  J3                      0.75     0.900      0  00:25       1.509     0.000
  J4                      0.83    41.131      0  00:30      45.971     0.000
  J5                      0.83    34.345      0  00:30      39.891     0.000
  J6                      0.83    15.237      0  00:25      18.731     0.000
  J8                      0.83    23.363      0  00:30      27.425     0.000
  J9                      0.83    10.664      0  00:30      13.386     0.000
  J10                     0.83    16.181      0  00:25      20.995     0.000
  J11                     0.83    17.726      0  00:25      23.771     0.000
  J12                     0.83    17.466      0  00:30      19.335     0.000
  J14                     0.83    14.662      0  00:30      16.247     0.000
  J15                     0.83    21.573      0  00:30      25.696     0.000
  J16                     0.83    12.229      0  00:30      13.150     0.000
  J17                     0.75     0.334      0  00:05       0.217     0.000
  J18                     0.61     0.499      0  00:05       0.417     0.000
  J20                     0.83    41.958      0  00:30      49.451     0.000
  J21                     0.83    13.577      0  00:30      15.293     0.000
  J22                     0.83    28.217      0  00:30      32.056     0.000
  J23                     0.83    15.640      0  00:30      21.673     0.000
  J24                     0.75     2.023      0  00:25       2.497     0.000
  J26                     0.83    12.247      0  00:30      14.396     0.000
  J27                     0.83    11.570      0  00:25      16.851     0.000
  J29                     0.83    18.180      0  00:25      23.369     0.000
  J30                     0.75     0.503      0  00:05       0.587     0.000
  J31                     0.83    48.165      0  00:30      56.489     0.000
  J33                     0.83    17.354      0  00:30      20.542     0.000
  J32                     0.83     7.891      0  00:30       9.051     0.000
  J28                     0.83    12.196      0  00:30      12.435     0.000
  
  
  ***********************
  Outfall Loading Summary
  ***********************
  
  -----------------------------------------------------------
                         Flow       Avg       Max       Total
                         Freq      Flow      Flow      Volume
  Outfall Node           Pcnt       CMS       CMS    10^6 ltr
  -----------------------------------------------------------
  OF                   100.00     7.321     7.967      21.044
  -----------------------------------------------------------
  System               100.00     7.321     7.967      21.044
  
  
  ********************
  Link Flow Summary
  ********************
  
  -----------------------------------------------------------------------------
                                 Maximum  Time of Max   Maximum    Max/    Max/
                                  |Flow|   Occurrence   |Veloc|    Full    Full
  Link                 Type          CMS  days hr:min     m/sec    Flow   Depth
  -----------------------------------------------------------------------------
  P1                   PUMP        0.000     0  00:00                          
  C23                  CONDUIT     0.748     0  00:05      0.35    6.51    1.00
  C24                  CONDUIT     1.252     0  00:05      0.59   10.84    1.00
  C25                  CONDUIT     1.382     0  00:05      0.65   11.04    1.00
  C26                  CONDUIT     0.628     0  00:05      0.29    4.92    1.00
  C27                  CONDUIT     1.984     0  00:05      0.93   16.32    1.00
  C28                  CONDUIT     0.000     0  00:05      0.00    0.00    1.00
  C29                  CONDUIT     2.055     0  00:05      0.96   14.47    1.00
  C30                  CONDUIT     1.164     0  00:05      0.54   10.22    1.00
  C31                  CONDUIT     1.230     0  00:05      0.58   10.76    1.00
  C32                  CONDUIT     1.532     0  00:05      0.72    9.90    1.00
  C33                  CONDUIT     1.775     0  00:05      0.83   10.39    1.00
  C34                  CONDUIT     0.000     0  00:05      0.00    0.00    1.00
  C35                  CONDUIT     0.484     0  00:05      0.23    5.15    1.00
  C36                  CONDUIT     0.463     0  00:05      0.22    4.37    1.00
  C37                  CONDUIT     1.933     0  00:05      0.90   13.27    1.00
  C38                  CONDUIT     1.381     0  00:05      0.65    9.63    1.00
  C39                  CONDUIT     4.059     0  00:05      1.90   25.73    1.00
  C40                  CONDUIT     0.607     0  00:05      0.28    4.33    1.00
  C41                  CONDUIT     0.786     0  00:05      0.37    6.10    1.00
  C43                  CONDUIT     0.000     0  00:05      0.00    0.00    1.00
  C44                  CONDUIT     1.435     0  00:05      0.67   12.25    1.00
  C45                  CONDUIT     0.486     0  00:05      0.23    4.17    1.00
  C46                  CONDUIT     1.268     0  00:05      0.59   10.51    1.00
  C48                  CONDUIT     1.827     0  00:05      0.85   14.43    1.00
  C42                  CONDUIT     1.956     0  00:05      0.91   15.51    1.00
  C50                  CONDUIT     1.453     0  00:05      0.68   14.04    1.00
  C49                  CONDUIT     1.204     0  00:05      0.56   10.51    1.00
  C01                  CONDUIT     0.000     0  00:00      0.00    0.00    1.00
  C02                  CONDUIT     0.222     0  00:05      0.10    1.76    1.00
  C03                  CONDUIT     2.119     0  00:05      0.99   16.93    1.00
  C04                  CONDUIT     1.544     0  00:05      0.72   12.14    1.00
  C05                  CONDUIT     0.571     0  00:05      0.27    4.55    1.00
  C06                  CONDUIT     0.000     0  00:00      0.00    0.00    1.00
  C07                  CONDUIT     0.597     0  00:05      0.28    5.24    1.00
  C08                  CONDUIT     0.656     0  00:05      0.31    5.37    1.00
  C09                  CONDUIT     0.211     0  00:05      0.10    1.84    1.00
  C10                  CONDUIT     0.190     0  00:05      0.09    1.51    1.00
  C11                  CONDUIT     0.657     0  00:05      0.31    5.77    1.00
  C12                  CONDUIT     2.482     0  00:05      1.16   21.38    1.00
  C13                  CONDUIT     0.514     0  00:05      0.24    4.47    1.00
  C14                  CONDUIT     1.819     0  00:05      0.85   14.45    1.00
  C15                  CONDUIT     0.509     0  00:05      0.24    4.05    1.00
  C16                  CONDUIT     1.112     0  00:05      0.52    9.76    1.00
  C17                  CONDUIT     1.265     0  00:05      0.59   11.17    1.00
  C18                  CONDUIT     0.298     0  00:05      0.14    2.65    1.00
  C19                  CONDUIT     0.000     0  00:05      0.00    0.00    1.00
  C20                  CONDUIT     0.986     0  00:05      0.46    8.78    1.00
  C21                  CONDUIT     0.706     0  00:05      0.33    6.67    1.00
  C22                  CONDUIT     1.792     0  00:05      0.84   14.14    1.00
  C47                  CONDUIT     0.000     0  00:05      0.00    0.00    1.00
  Cout                 CONDUIT     7.967     0  00:05      3.85   62.91    0.93
  
  
  ***************************
  Flow Classification Summary
  ***************************
  
  -------------------------------------------------------------------------------------
                      Adjusted    ---------- Fraction of Time in Flow Class ---------- 
                       /Actual         Up    Down  Sub   Sup   Up    Down  Norm  Inlet 
  Conduit               Length    Dry  Dry   Dry   Crit  Crit  Crit  Crit  Ltd   Ctrl  
  -------------------------------------------------------------------------------------
  C23                     1.00   0.00  0.00  0.00  1.00  0.00  0.00  0.00  0.00  0.00
  C24                     1.00   0.00  0.00  0.00  1.00  0.00  0.00  0.00  0.00  0.00
  C25                     1.00   0.00  0.00  0.00  1.00  0.00  0.00  0.00  0.00  0.00
  C26                     1.00   0.00  0.00  0.00  1.00  0.00  0.00  0.00  0.00  0.00
  C27                     1.00   0.00  0.00  0.00  1.00  0.00  0.00  0.00  0.00  0.00
  C28                     1.00   0.00  0.00  0.00  1.00  0.00  0.00  0.00  0.00  0.00
  C29                     1.00   0.00  0.00  0.00  1.00  0.00  0.00  0.00  0.00  0.00
  C30                     1.00   0.00  0.00  0.00  1.00  0.00  0.00  0.00  0.00  0.00
  C31                     1.00   0.00  0.00  0.00  1.00  0.00  0.00  0.00  0.00  0.00
  C32                     1.00   0.00  0.00  0.00  1.00  0.00  0.00  0.00  0.00  0.00
  C33                     1.00   0.00  0.00  0.00  1.00  0.00  0.00  0.00  0.00  0.00
  C34                     1.00   0.00  0.00  0.00  1.00  0.00  0.00  0.00  0.00  0.00
  C35                     1.00   0.00  0.00  0.00  1.00  0.00  0.00  0.00  0.00  0.00
  C36                     1.00   0.00  0.00  0.00  1.00  0.00  0.00  0.00  0.00  0.00
  C37                     1.00   0.00  0.00  0.00  1.00  0.00  0.00  0.00  0.00  0.00
  C38                     1.00   0.00  0.00  0.00  1.00  0.00  0.00  0.00  0.00  0.00
  C39                     1.00   0.00  0.00  0.00  1.00  0.00  0.00  0.00  0.00  0.00
  C40                     1.00   0.00  0.00  0.00  1.00  0.00  0.00  0.00  0.00  0.00
  C41                     1.00   0.00  0.00  0.00  1.00  0.00  0.00  0.00  0.00  0.00
  C43                     1.00   0.00  0.00  0.00  1.00  0.00  0.00  0.00  0.00  0.00
  C44                     1.00   0.00  0.00  0.00  1.00  0.00  0.00  0.00  0.00  0.00
  C45                     1.00   0.00  0.00  0.00  1.00  0.00  0.00  0.00  0.00  0.00
  C46                     1.00   0.00  0.00  0.00  1.00  0.00  0.00  0.00  0.00  0.00
  C48                     1.00   0.00  0.00  0.00  1.00  0.00  0.00  0.00  0.00  0.00
  C42                     1.00   0.00  0.00  0.00  1.00  0.00  0.00  0.00  0.00  0.00
  C50                     1.00   0.00  0.00  0.00  1.00  0.00  0.00  0.00  0.00  0.00
  C49                     1.00   0.00  0.00  0.00  1.00  0.00  0.00  0.00  0.00  0.00
  C01                     1.00   0.00  0.00  0.00  1.00  0.00  0.00  0.00  0.00  0.00
  C02                     1.00   0.00  0.00  0.00  1.00  0.00  0.00  0.00  0.00  0.00
  C03                     1.00   0.00  0.00  0.00  1.00  0.00  0.00  0.00  0.00  0.00
  C04                     1.00   0.00  0.00  0.00  1.00  0.00  0.00  0.00  0.00  0.00
  C05                     1.00   0.00  0.00  0.00  1.00  0.00  0.00  0.00  0.00  0.00
  C06                     1.00   0.00  0.00  0.00  1.00  0.00  0.00  0.00  0.00  0.00
  C07                     1.00   0.00  0.00  0.00  1.00  0.00  0.00  0.00  0.00  0.00
  C08                     1.00   0.00  0.00  0.00  1.00  0.00  0.00  0.00  0.00  0.00
  C09                     1.00   0.00  0.00  0.00  1.00  0.00  0.00  0.00  0.00  0.00
  C10                     1.00   0.00  0.00  0.00  1.00  0.00  0.00  0.00  0.00  0.00
  C11                     1.00   0.00  0.00  0.00  1.00  0.00  0.00  0.00  0.00  0.00
  C12                     1.00   0.00  0.00  0.00  1.00  0.00  0.00  0.00  0.00  0.00
  C13                     1.00   0.00  0.00  0.00  1.00  0.00  0.00  0.00  0.00  0.00
  C14                     1.00   0.00  0.00  0.00  1.00  0.00  0.00  0.00  0.00  0.00
  C15                     1.00   0.00  0.00  0.00  1.00  0.00  0.00  0.00  0.00  0.00
  C16                     1.00   0.00  0.00  0.00  1.00  0.00  0.00  0.00  0.00  0.00
  C17                     1.00   0.00  0.00  0.00  1.00  0.00  0.00  0.00  0.00  0.00
  C18                     1.00   0.00  0.00  0.00  1.00  0.00  0.00  0.00  0.00  0.00
  C19                     1.00   0.00  0.00  0.00  1.00  0.00  0.00  0.00  0.00  0.00
  C20                     1.00   0.00  0.00  0.00  1.00  0.00  0.00  0.00  0.00  0.00
  C21                     1.00   0.00  0.00  0.00  1.00  0.00  0.00  0.00  0.00  0.00
  C22                     1.00   0.00  0.00  0.00  1.00  0.00  0.00  0.00  0.00  0.00
  C47                     1.00   0.00  0.00  0.00  1.00  0.00  0.00  0.00  0.00  0.00
  Cout                    1.00   0.00  0.00  0.00  1.00  0.00  0.00  0.00  0.00  0.00
  
  
  *************************
  Conduit Surcharge Summary
  *************************
  
  ----------------------------------------------------------------------------
                                                           Hours        Hours 
                         --------- Hours Full --------   Above Full   Capacity
  Conduit                Both Ends  Upstream  Dnstream   Normal Flow   Limited
  ----------------------------------------------------------------------------
  C23                         0.83      0.83      0.83      0.83         0.01
  C24                         0.83      0.83      0.83      0.83         0.01
  C25                         0.83      0.83      0.83      0.83         0.01
  C26                         0.83      0.83      0.83      0.77         0.01
  C27                         0.83      0.83      0.83      0.83         0.01
  C28                         0.83      0.83      0.83      0.01         0.01
  C29                         0.83      0.83      0.83      0.81         0.01
  C30                         0.83      0.83      0.83      0.83         0.01
  C31                         0.83      0.83      0.83      0.83         0.01
  C32                         0.83      0.83      0.83      0.73         0.09
  C33                         0.83      0.83      0.83      0.67         0.01
  C34                         0.83      0.83      0.83      0.01         0.01
  C35                         0.83      0.83      0.83      0.83         0.01
  C36                         0.83      0.83      0.83      0.83         0.01
  C37                         0.83      0.83      0.83      0.78         0.01
  C38                         0.83      0.83      0.83      0.77         0.01
  C39                         0.83      0.83      0.83      0.75         0.09
  C40                         0.83      0.83      0.83      0.69         0.01
  C41                         0.83      0.83      0.83      0.80         0.01
  C43                         0.83      0.83      0.83      0.01         0.01
  C44                         0.83      0.83      0.83      0.83         0.01
  C45                         0.83      0.83      0.83      0.72         0.09
  C46                         0.83      0.83      0.83      0.83         0.01
  C48                         0.83      0.83      0.83      0.83         0.01
  C42                         0.83      0.83      0.83      0.83         0.09
  C50                         0.83      0.83      0.83      0.83         0.01
  C49                         0.83      0.83      0.83      0.83         0.01
  C01                         0.83      0.83      0.83      0.01         0.01
  C02                         0.83      0.83      0.83      0.46         0.01
  C03                         0.83      0.83      0.83      0.83         0.01
  C04                         0.83      0.83      0.83      0.83         0.01
  C05                         0.83      0.83      0.83      0.76         0.08
  C06                         0.83      0.83      0.83      0.01         0.01
  C07                         0.83      0.83      0.83      0.83         0.01
  C08                         0.83      0.83      0.83      0.82         0.01
  C09                         0.83      0.83      0.83      0.52         0.01
  C10                         0.83      0.83      0.83      0.38         0.01
  C11                         0.83      0.83      0.83      0.83         0.01
  C12                         0.83      0.83      0.83      0.83         0.09
  C13                         0.83      0.83      0.83      0.74         0.15
  C14                         0.83      0.83      0.83      0.83         0.09
  C15                         0.83      0.83      0.83      0.68         0.07
  C16                         0.83      0.83      0.83      0.83         0.01
  C17                         0.83      0.83      0.83      0.83         0.01
  C18                         0.83      0.83      0.83      0.69         0.01
  C19                         0.83      0.83      0.83      0.01         0.01
  C20                         0.83      0.83      0.83      0.83         0.01
  C21                         0.83      0.83      0.83      0.83         0.01
  C22                         0.83      0.83      0.83      0.83         0.01
  C47                         0.83      0.83      0.83      0.01         0.01
  Cout                        0.01      0.83      0.01      0.83         0.01
  
  
  ***************
  Pumping Summary
  ***************
  
  ---------------------------------------------------------------------------------------------------------
                                                  Min       Avg       Max     Total     Power    % Time Off
                        Percent   Number of      Flow      Flow      Flow    Volume     Usage    Pump Curve
  Pump                 Utilized   Start-Ups       CMS       CMS       CMS  10^6 ltr     Kw-hr    Low   High
  ---------------------------------------------------------------------------------------------------------
  P1                       0.00           0      0.00      0.00      0.00     0.000      0.00    0.0    0.0
  

  Analysis begun on:  Mon Nov 25 15:13:25 2024
  Analysis ended on:  Mon Nov 25 15:13:25 2024
  Total elapsed time: < 1 sec