
  EPA STORM WATER MANAGEMENT MODEL - VERSION 5.2 (Build 5.2.4)
  PYSWMM TOOLKIT API - VERSION v1.0 (2023-11-27)
  ------------------------------------------------------------

  WARNING 04: minimum elevation drop used for Conduit C23
  WARNING 04: minimum elevation drop used for Conduit C24
  WARNING 04: minimum elevation drop used for Conduit C25
  WARNING 04: minimum elevation drop used for Conduit C26
  WARNING 04: minimum elevation drop used for Conduit C27
  WARNING 04: minimum elevation drop used for Conduit C28
  WARNING 04: minimum elevation drop used for Conduit C29
  WARNING 04: minimum elevation drop used for Conduit C30
  WARNING 04: minimum elevation drop used for Conduit C31
  WARNING 04: minimum elevation drop used for Conduit C32
  WARNING 04: minimum elevation drop used for Conduit C33
  WARNING 04: minimum elevation drop used for Conduit C34
  WARNING 04: minimum elevation drop used for Conduit C35
  WARNING 04: minimum elevation drop used for Conduit C36
  WARNING 04: minimum elevation drop used for Conduit C37
  WARNING 04: minimum elevation drop used for Conduit C38
  WARNING 04: minimum elevation drop used for Conduit C39
  WARNING 04: minimum elevation drop used for Conduit C40
  WARNING 04: minimum elevation drop used for Conduit C41
  WARNING 04: minimum elevation drop used for Conduit C43
  WARNING 04: minimum elevation drop used for Conduit C44
  WARNING 04: minimum elevation drop used for Conduit C45
  WARNING 04: minimum elevation drop used for Conduit C46
  WARNING 04: minimum elevation drop used for Conduit C48
  WARNING 04: minimum elevation drop used for Conduit C42
  WARNING 04: minimum elevation drop used for Conduit C50
  WARNING 04: minimum elevation drop used for Conduit C49
  WARNING 04: minimum elevation drop used for Conduit C01
  WARNING 04: minimum elevation drop used for Conduit C02
  WARNING 04: minimum elevation drop used for Conduit C03
  WARNING 04: minimum elevation drop used for Conduit C04
  WARNING 04: minimum elevation drop used for Conduit C05
  WARNING 04: minimum elevation drop used for Conduit C06
  WARNING 04: minimum elevation drop used for Conduit C07
  WARNING 04: minimum elevation drop used for Conduit C08
  WARNING 04: minimum elevation drop used for Conduit C09
  WARNING 04: minimum elevation drop used for Conduit C10
  WARNING 04: minimum elevation drop used for Conduit C11
  WARNING 04: minimum elevation drop used for Conduit C12
  WARNING 04: minimum elevation drop used for Conduit C13
  WARNING 04: minimum elevation drop used for Conduit C14
  WARNING 04: minimum elevation drop used for Conduit C15
  WARNING 04: minimum elevation drop used for Conduit C16
  WARNING 04: minimum elevation drop used for Conduit C17
  WARNING 04: minimum elevation drop used for Conduit C18
  WARNING 04: minimum elevation drop used for Conduit C19
  WARNING 04: minimum elevation drop used for Conduit C20
  WARNING 04: minimum elevation drop used for Conduit C21
  WARNING 04: minimum elevation drop used for Conduit C22
  WARNING 04: minimum elevation drop used for Conduit C47
  WARNING 04: minimum elevation drop used for Conduit Cout
  
  ****************
  Analysis Options
  ****************
  Flow Units ............... CMS
  Process Models:
    Rainfall/Runoff ........ YES
    RDII ................... NO
    Snowmelt ............... NO
    Groundwater ............ NO
    Flow Routing ........... YES
    Ponding Allowed ........ NO
    Water Quality .......... NO
  Infiltration Method ...... HORTON
  Flow Routing Method ...... DYNWAVE
  Surcharge Method ......... EXTRAN
  Starting Date ............ 01/11/2023 13:00:00
  Ending Date .............. 01/11/2023 13:40:00
  Antecedent Dry Days ...... 0.0
  Report Time Step ......... 00:10:00
  Wet Time Step ............ 00:05:00
  Dry Time Step ............ 01:00:00
  Routing Time Step ........ 300.00 sec
  Variable Time Step ....... YES
  Maximum Trials ........... 8
  Number of Threads ........ 1
  Head Tolerance ........... 0.001524 m
  
  
  *********************
  Rainfall File Summary
  *********************
  Station    First        Last         Recording   Periods    Periods    Periods
  ID         Date         Date         Frequency  w/Precip    Missing    Malfunc.
  -------------------------------------------------------------------------------
  956        01/11/2023   01/11/2023      10 min         5          0          0

  
  
  **************************        Volume         Depth
  Runoff Quantity Continuity     hectare-m            mm
  **************************     ---------       -------
  Total Precipitation ......        86.357       863.600
  Evaporation Loss .........         0.000         0.000
  Infiltration Loss ........         0.000         0.000
  Surface Runoff ...........        80.625       806.281
  Final Storage ............         7.348        73.479
  Continuity Error (%) .....        -1.871
  
  
  **************************        Volume        Volume
  Flow Routing Continuity        hectare-m      10^6 ltr
  **************************     ---------     ---------
  Dry Weather Inflow .......         0.000         0.000
  Wet Weather Inflow .......        74.570       745.703
  Groundwater Inflow .......         0.000         0.000
  RDII Inflow ..............         0.000         0.000
  External Inflow ..........         0.000         0.000
  External Outflow .........         1.664        16.642
  Flooding Loss ............        70.964       709.648
  Evaporation Loss .........         0.000         0.000
  Exfiltration Loss ........         0.000         0.000
  Initial Stored Volume ....         0.046         0.463
  Final Stored Volume ......         1.883        18.831
  Continuity Error (%) .....         0.140
  
  
  *************************
  Highest Continuity Errors
  *************************
  Node J3 (-17.08%)
  Node J30 (6.46%)
  Node J28 (4.83%)
  Node J32 (4.31%)
  Node J27 (4.22%)
  
  
  ***************************
  Time-Step Critical Elements
  ***************************
  Link Cout (98.69%)
  
  
  ********************************
  Highest Flow Instability Indexes
  ********************************
  Link C30 (2)
  Link C31 (2)
  Link C32 (2)
  Link C33 (2)
  Link C34 (2)
  
  
  *********************************
  Most Frequent Nonconverging Nodes
  *********************************
  Node J2 (0.65%)
  Node J3 (0.65%)
  Node J9 (0.65%)
  Node J27 (0.65%)
  Node OF (0.65%)
  
  
  *************************
  Routing Time Step Summary
  *************************
  Minimum Time Step           :     4.94 sec
  Average Time Step           :    15.69 sec
  Maximum Time Step           :   300.00 sec
  % of Time in Steady State   :     0.00
  Average Iterations per Step :     2.08
  % of Steps Not Converging   :     0.65
  Time Step Frequencies       :
     300.000 - 83.462 sec      :     0.66 %
     83.462 - 23.220 sec      :     0.00 %
     23.220 -  6.460 sec      :    98.68 %
      6.460 -  1.797 sec      :     0.66 %
      1.797 -  0.500 sec      :     0.00 %
  
  
  ***************************
  Subcatchment Runoff Summary
  ***************************
  
  ------------------------------------------------------------------------------------------------------------------------------
                            Total      Total      Total      Total     Imperv       Perv      Total       Total     Peak  Runoff
                           Precip      Runon       Evap      Infil     Runoff     Runoff     Runoff      Runoff   Runoff   Coeff
  Subcatchment                 mm         mm         mm         mm         mm         mm         mm    10^6 ltr      CMS
  ------------------------------------------------------------------------------------------------------------------------------
  S1                       863.60       0.00       0.00       0.00       8.55     855.05     863.60      217.85   144.18   1.000
  S2                       863.60       0.00       0.00       0.00       7.86     854.34     862.20        6.70     4.44   0.998
  S3                       863.60       0.00       0.00       0.00       7.86     855.74     863.60        1.79     1.18   1.000
  S4                       863.60       0.00       0.00       0.00       7.86     855.74     863.60        1.77     1.17   1.000
  S5                       863.60       0.00       0.00       0.00       7.86     855.74     863.60        2.58     1.71   1.000
  S6                       863.60       0.00       0.00       0.00       7.86     855.74     863.60        7.12     4.71   1.000
  S7                       863.60       0.00       0.00       0.00       7.86     855.74     863.60        1.34     0.89   1.000
  S8                       863.60       0.00       0.00       0.00       7.86     855.74     863.60        4.21     2.78   1.000
  S9                       863.60       0.00       0.00       0.00       7.86     855.74     863.60        5.20     3.44   1.000
  S10                      863.60       0.00       0.00       0.00       0.00     855.74     855.74        1.21     0.80   0.991
  S11                      863.60       0.00       0.00       0.00       7.86     808.38     816.24       11.94     8.26   0.945
  S12                      863.60       0.00       0.00       0.00       7.86     855.74     863.60        7.50     4.96   1.000
  S13                      863.60       0.00       0.00       0.00       0.00     855.74     855.74        7.22     4.78   0.991
  S14                      863.60       0.00       0.00       0.00       7.25     856.35     863.60        6.93     4.59   1.000
  S15                      863.60       0.00       0.00       0.00       7.25     856.35     863.60        6.48     4.29   1.000
  S16                      863.60       0.00       0.00       0.00       6.65     846.58     853.23       15.07    10.09   0.988
  S17                      863.60       0.00       0.00       0.00       6.65     741.41     748.06       25.47    18.12   0.866
  S18                      863.60       0.00       0.00       0.00       6.65     856.97     863.62        1.11     0.74   1.000
  S19                      863.60       0.00       0.00       0.00       6.65       0.00       6.65        0.02     0.01   0.008
  S20                      863.60       0.00       0.00       0.00       6.65     856.96     863.61        0.88     0.58   1.000
  S21                      863.60       0.00       0.00       0.00       6.65     830.26     836.91       13.88     9.44   0.969
  S22                      863.60       0.00       0.00       0.00       6.65     856.96     863.61        0.28     0.19   1.000
  S23                      863.60       0.00       0.00       0.00       6.65     856.95     863.60        0.34     0.22   1.000
  S24                      863.60       0.00       0.00       0.00       6.65     856.95     863.60        0.42     0.28   1.000
  S25                      863.60       0.00       0.00       0.00       6.65     856.95     863.60        0.51     0.34   1.000
  S26                      863.60       0.00       0.00       0.00       6.65     856.95     863.60        0.60     0.39   1.000
  S27                      863.60       0.00       0.00       0.00       6.65     856.82     863.46        7.18     4.75   1.000
  S28                      863.60       0.00       0.00       0.00       6.65     833.18     839.83        7.46     5.06   0.972
  S29                      863.60       0.00       0.00       0.00       6.65     856.92     863.57        0.79     0.53   1.000
  S30                      863.60       0.00       0.00       0.00       6.65     709.14     715.79       45.60    32.62   0.829
  S31                      863.60       0.00       0.00       0.00       6.91     856.69     863.60       11.70     7.74   1.000
  S32                      863.60       0.00       0.00       0.00       6.91     856.69     863.60        3.60     2.38   1.000
  S33                      863.60       0.00       0.00       0.00       8.12     855.48     863.60        2.69     1.78   1.000
  S34                      863.60       0.00       0.00       0.00       8.12     855.48     863.60        2.84     1.88   1.000
  S35                      863.60       0.00       0.00       0.00       7.86     855.74     863.60        3.47     2.30   1.000
  S36                      863.60       0.00       0.00       0.00       7.86     855.74     863.60        1.42     0.94   1.000
  S37                      863.60       0.00       0.00       0.00       7.86     855.74     863.60        3.11     2.06   1.000
  S38                      863.60       0.00       0.00       0.00       7.86     855.74     863.60        0.14     0.09   1.000
  S39                      863.60       0.00       0.00       0.00       7.86     855.74     863.60        3.54     2.34   1.000
  S40                      863.60       0.00       0.00       0.00       7.86     855.74     863.60        1.22     0.81   1.000
  S41                      863.60       0.00       0.00       0.00       7.86     855.74     863.60        1.96     1.30   1.000
  S42                      863.60       0.00       0.00       0.00       7.86     855.74     863.60        2.73     1.81   1.000
  S43                      863.60       0.00       0.00       0.00       7.86     855.74     863.60        6.22     4.12   1.000
  S44                      863.60       0.00       0.00       0.00       7.86     855.74     863.60        4.51     2.98   1.000
  S45                      863.60       0.00       0.00       0.00       7.86     855.74     863.60        0.46     0.30   1.000
  S46                      863.60       0.00       0.00       0.00       7.86     855.74     863.60        4.18     2.77   1.000
  S47                      863.60       0.00       0.00       0.00       7.86     855.74     863.60        8.45     5.59   1.000
  S48                      863.60       0.00       0.00       0.00       7.86     855.74     863.60        9.76     6.46   1.000
  S49                      863.60       0.00       0.00       0.00       7.86     855.74     863.60        5.93     3.93   1.000
  S50                      863.60       0.00       0.00       0.00       7.86     855.74     863.60        4.89     3.24   1.000
  S51                      863.60       0.00       0.00       0.00       7.86     855.74     863.60        2.88     1.91   1.000
  S52                      863.60       0.00       0.00       0.00       7.86     855.74     863.60        7.64     5.06   1.000
  S53                      863.60       0.00       0.00       0.00       7.86     833.17     841.03       10.24     6.95   0.974
  S54                      863.60       0.00       0.00       0.00       7.86     852.98     860.84        3.93     2.61   0.997
  S55                      863.60       0.00       0.00       0.00       7.86     855.74     863.60        0.33     0.22   1.000
  S56                      863.60       0.00       0.00       0.00       7.86     855.73     863.59        0.33     0.22   1.000
  S57                      863.60       0.00       0.00       0.00       7.86     855.74     863.60        4.46     2.95   1.000
  S58                      863.60       0.00       0.00       0.00       7.86     855.74     863.60        5.73     3.80   1.000
  S59                      863.60       0.00       0.00       0.00       7.86     855.74     863.60        5.57     3.69   1.000
  S60                      863.60       0.00       0.00       0.00       6.65     856.05     862.70        3.39     2.25   0.999
  S61                      863.60       0.00       0.00       0.00       6.65       0.00       6.65        0.02     0.01   0.008
  S62                      863.60       0.00       0.00       0.00       6.65     686.22     692.87       37.13    26.62   0.802
  S63                      863.60       0.00       0.00       0.00       6.65     856.95     863.60        8.12     5.37   1.000
  S64                      863.60       0.00       0.00       0.00       6.65     856.95     863.60       21.98    14.55   1.000
  S65                      863.60       0.00       0.00       0.00       6.65     856.95     863.60        3.51     2.32   1.000
  S66                      863.60       0.00       0.00       0.00       6.65     856.95     863.60        5.66     3.74   1.000
  S67                      863.60       0.00       0.00       0.00       6.65     856.95     863.60       10.57     7.00   1.000
  S68                      863.60       0.00       0.00       0.00       6.65     856.95     863.60       12.39     8.20   1.000
  S69                      863.60       0.00       0.00       0.00       6.65       0.00       6.65        0.17     0.11   0.008
  S70                      863.60       0.00       0.00       0.00       6.65     828.93     835.57       21.87    14.90   0.968
  S71                      863.60       0.00       0.00       0.00       7.86     855.74     863.60       12.70     8.41   1.000
  S72                      863.60       0.00       0.00       0.00       6.65     848.88     855.53        4.24     2.83   0.991
  S73                      863.60       0.00       0.00       0.00       6.65     856.95     863.60       18.10    11.98   1.000
  S74                      863.60       0.00       0.00       0.00       6.65       0.00       6.65        0.04     0.03   0.008
  S75                      863.60       0.00       0.00       0.00       6.65     856.95     863.60        0.58     0.38   1.000
  S76                      863.60       0.00       0.00       0.00       6.65     856.95     863.60       11.41     7.55   1.000
  S77                      863.60       0.00       0.00       0.00       6.65     856.95     863.60        9.23     6.11   1.000
  S78                      863.60       0.00       0.00       0.00       6.65     856.95     863.60        6.69     4.43   1.000
  S79                      863.60       0.00       0.00       0.00       7.86     855.74     863.60        5.86     3.88   1.000
  S80                      863.60       0.00       0.00       0.00       6.65     856.84     863.49        2.38     1.58   1.000
  S81                      863.60       0.00       0.00       0.00       6.65     856.95     863.60        9.77     6.46   1.000
  S82                      863.60       0.00       0.00       0.00       6.65     856.95     863.60        9.53     6.31   1.000
  S83                      863.60       0.00       0.00       0.00       6.65     856.95     863.60        6.13     4.06   1.000
  S84                      863.60       0.00       0.00       0.00       7.86     855.74     863.60        4.01     2.65   1.000
  S85                      863.60       0.00       0.00       0.00       7.86     839.29     847.15       10.47     7.06   0.981
  S86                      863.60       0.00       0.00       0.00       0.00     855.74     855.74        9.90     6.55   0.991
  S87                      863.60       0.00       0.00       0.00       7.86     855.74     863.60       10.73     7.10   1.000
  S88                      863.60       0.00       0.00       0.00       7.86     855.74     863.60        1.93     1.28   1.000
  S89                      863.60       0.00       0.00       0.00       7.86     855.74     863.60        8.73     5.78   1.000
  S90                      863.60       0.00       0.00       0.00       0.00     855.74     855.74        4.20     2.78   0.991
  S91                      863.60       0.00       0.00       0.00       7.86     855.74     863.60        1.42     0.94   1.000
  
  
  ******************
  Node Depth Summary
  ******************
  
  ---------------------------------------------------------------------------------
                                 Average  Maximum  Maximum  Time of Max    Reported
                                   Depth    Depth      HGL   Occurrence   Max Depth
  Node                 Type       Meters   Meters   Meters  days hr:min      Meters
  ---------------------------------------------------------------------------------
  J7                   JUNCTION     2.48     2.50     2.50     0  00:05        2.50
  J13                  JUNCTION     2.48     2.50     2.50     0  00:05        2.50
  J19                  JUNCTION     2.48     2.50     2.50     0  00:05        2.50
  J25                  JUNCTION     2.48     2.50     2.50     0  00:05        2.50
  J1                   JUNCTION     2.48     2.50     2.50     0  00:05        2.50
  J2                   JUNCTION     2.48     2.50     2.50     0  00:05        2.50
  J3                   JUNCTION     2.48     2.50     2.50     0  00:05        2.50
  J4                   JUNCTION     2.48     2.50     2.50     0  00:05        2.50
  J5                   JUNCTION     2.48     2.50     2.50     0  00:05        2.50
  J6                   JUNCTION     2.48     2.50     2.50     0  00:05        2.50
  J8                   JUNCTION     2.48     2.50     2.50     0  00:05        2.50
  J9                   JUNCTION     2.48     2.50     2.50     0  00:05        2.50
  J10                  JUNCTION     2.48     2.50     2.50     0  00:05        2.50
  J11                  JUNCTION     2.48     2.50     2.50     0  00:05        2.50
  J12                  JUNCTION     2.48     2.50     2.50     0  00:05        2.50
  J14                  JUNCTION     2.48     2.50     2.50     0  00:05        2.50
  J15                  JUNCTION     2.48     2.50     2.50     0  00:05        2.50
  J16                  JUNCTION     2.48     2.50     2.50     0  00:05        2.50
  J17                  JUNCTION     2.48     2.50     2.50     0  00:05        2.50
  J18                  JUNCTION     2.48     2.50     2.50     0  00:05        2.50
  J20                  JUNCTION     2.48     2.50     2.50     0  00:05        2.50
  J21                  JUNCTION     2.48     2.50     2.50     0  00:05        2.50
  J22                  JUNCTION     2.48     2.50     2.50     0  00:05        2.50
  J23                  JUNCTION     2.48     2.50     2.50     0  00:05        2.50
  J24                  JUNCTION     2.48     2.50     2.50     0  00:05        2.50
  J26                  JUNCTION     2.48     2.50     2.50     0  00:05        2.50
  J27                  JUNCTION     2.48     2.50     2.50     0  00:05        2.50
  J29                  JUNCTION     2.48     2.50     2.50     0  00:05        2.50
  J30                  JUNCTION     2.48     2.50     2.50     0  00:05        2.50
  J31                  JUNCTION     2.48     2.50     2.50     0  00:05        2.50
  J33                  JUNCTION     2.48     2.50     2.50     0  00:05        2.50
  J32                  JUNCTION     2.48     2.50     2.50     0  00:05        2.50
  J28                  JUNCTION     2.48     2.50     2.50     0  00:05        2.50
  OF                   OUTFALL      1.36     1.41     1.41     0  00:05        1.37
  
  
  *******************
  Node Inflow Summary
  *******************
  
  -------------------------------------------------------------------------------------------------
                                  Maximum  Maximum                  Lateral       Total        Flow
                                  Lateral    Total  Time of Max      Inflow      Inflow     Balance
                                   Inflow   Inflow   Occurrence      Volume      Volume       Error
  Node                 Type           CMS      CMS  days hr:min    10^6 ltr    10^6 ltr     Percent
  -------------------------------------------------------------------------------------------------
  J7                   JUNCTION    36.068   36.068     0  00:30        46.3        46.3       1.620
  J13                  JUNCTION     3.260    3.260     0  00:30        4.53        4.53       2.872
  J19                  JUNCTION   154.520  154.520     0  00:30         217         217       2.732
  J25                  JUNCTION    18.122   18.122     0  00:30        23.2        23.2       1.527
  J1                   JUNCTION    12.971   12.971     0  00:25        18.2        18.2       2.049
  J2                   JUNCTION     9.745   10.021     0  00:25        13.7        14.8       3.283
  J3                   JUNCTION     0.434    2.473     0  00:05       0.609        1.97     -14.586
  J4                   JUNCTION    28.218   28.392     0  00:25        39.6        40.1       2.584
  J5                   JUNCTION    23.331   23.509     0  00:25        32.7        33.2       2.756
  J6                   JUNCTION    10.208   10.437     0  00:25        14.3        15.1       2.769
  J8                   JUNCTION    15.707   15.993     0  00:25          22        22.8       2.791
  J9                   JUNCTION     7.056    7.461     0  00:30         9.7        11.4       1.793
  J10                  JUNCTION    10.540   10.940     0  00:25        14.8        15.9       3.310
  J11                  JUNCTION    11.323   11.645     0  00:25        15.9        16.8       3.210
  J12                  JUNCTION    11.980   12.200     0  00:25        16.8        17.5       2.974
  J14                  JUNCTION    10.151   10.151     0  00:25        14.2        14.2       2.776
  J15                  JUNCTION    14.513   14.782     0  00:30        20.1        20.9       2.302
  J16                  JUNCTION     8.408    8.892     0  00:25        11.8        13.5       2.738
  J17                  JUNCTION     0.109    1.393     0  00:05       0.153        1.29       3.853
  J18                  JUNCTION     0.383    0.564     0  00:05       0.537        1.02       3.883
  J20                  JUNCTION    28.297   28.297     0  00:30        39.1        39.1       2.810
  J21                  JUNCTION     9.370    9.370     0  00:25        13.1        13.1       2.926
  J22                  JUNCTION    19.187   19.187     0  00:30        26.2        26.2       2.009
  J23                  JUNCTION    10.090   10.495     0  00:30          14        15.6       3.368
  J24                  JUNCTION     1.331    1.331     0  00:25        1.87        1.87       3.081
  J26                  JUNCTION     8.276    8.482     0  00:25        11.6        12.2       2.566
  J27                  JUNCTION     7.259    7.853     0  00:25        10.2        12.3       4.402
  J29                  JUNCTION    11.906   12.474     0  00:25        16.7        18.5       3.087
  J30                  JUNCTION     0.000    1.433     0  00:05           0        1.43       6.903
  J31                  JUNCTION    32.620   32.764     0  00:30        41.3        41.8       1.255
  J33                  JUNCTION    11.714   11.714     0  00:30        16.4        16.4       1.915
  J32                  JUNCTION     5.344    6.384     0  00:05         7.5        9.87       4.503
  J28                  JUNCTION     8.545    9.606     0  00:05          12        15.1       5.079
  OF                   OUTFALL      0.000    7.967     0  00:05           0        16.6       0.000
  
  
  **********************
  Node Surcharge Summary
  **********************
  
  Surcharging occurs when water rises above the top of the highest conduit.
  ---------------------------------------------------------------------
                                               Max. Height   Min. Depth
                                   Hours       Above Crown    Below Rim
  Node                 Type      Surcharged         Meters       Meters
  ---------------------------------------------------------------------
  J7                   JUNCTION        0.67          0.850        0.000
  J13                  JUNCTION        0.67          0.850        0.000
  J19                  JUNCTION        0.67          0.850        0.000
  J25                  JUNCTION        0.67          0.850        0.000
  J1                   JUNCTION        0.67          0.850        0.000
  J2                   JUNCTION        0.67          0.850        0.000
  J3                   JUNCTION        0.67          0.850        0.000
  J4                   JUNCTION        0.67          0.850        0.000
  J5                   JUNCTION        0.67          0.850        0.000
  J6                   JUNCTION        0.67          0.850        0.000
  J8                   JUNCTION        0.67          0.850        0.000
  J9                   JUNCTION        0.67          0.850        0.000
  J10                  JUNCTION        0.67          0.850        0.000
  J11                  JUNCTION        0.67          0.850        0.000
  J12                  JUNCTION        0.67          0.850        0.000
  J14                  JUNCTION        0.67          0.850        0.000
  J15                  JUNCTION        0.67          0.850        0.000
  J16                  JUNCTION        0.67          0.850        0.000
  J17                  JUNCTION        0.67          0.850        0.000
  J18                  JUNCTION        0.67          0.850        0.000
  J20                  JUNCTION        0.67          0.850        0.000
  J21                  JUNCTION        0.67          0.850        0.000
  J22                  JUNCTION        0.67          0.850        0.000
  J23                  JUNCTION        0.67          0.850        0.000
  J24                  JUNCTION        0.67          0.850        0.000
  J26                  JUNCTION        0.67          0.850        0.000
  J27                  JUNCTION        0.67          0.850        0.000
  J29                  JUNCTION        0.67          0.850        0.000
  J30                  JUNCTION        0.67          0.850        0.000
  J31                  JUNCTION        0.67          0.850        0.000
  J33                  JUNCTION        0.67          0.850        0.000
  J32                  JUNCTION        0.67          0.850        0.000
  J28                  JUNCTION        0.67          0.850        0.000
  
  
  *********************
  Node Flooding Summary
  *********************
  
  Flooding refers to all water that overflows a node, whether it ponds or not.
  --------------------------------------------------------------------------
                                                             Total   Maximum
                                 Maximum   Time of Max       Flood    Ponded
                        Hours       Rate    Occurrence      Volume     Depth
  Node                 Flooded       CMS   days hr:min    10^6 ltr    Meters
  --------------------------------------------------------------------------
  J7                      0.67    35.987      0  00:30      46.349     0.000
  J13                     0.67     3.260      0  00:30       4.532     0.000
  J19                     0.67   146.969      0  00:30     199.112     0.000
  J25                     0.67    18.080      0  00:30      23.210     0.000
  J1                      0.67    12.436      0  00:30      16.036     0.000
  J2                      0.67     9.673      0  00:25      13.844     0.000
  J3                      0.37     0.378      0  00:05       0.286     0.000
  J4                      0.67    27.754      0  00:30      37.400     0.000
  J5                      0.67    22.860      0  00:30      31.210     0.000
  J6                      0.67    10.060      0  00:30      13.881     0.000
  J8                      0.67    15.753      0  00:30      21.864     0.000
  J9                      0.67     7.220      0  00:30       9.906     0.000
  J10                     0.67    10.939      0  00:25      15.939     0.000
  J11                     0.67    11.627      0  00:25      16.724     0.000
  J12                     0.67    11.889      0  00:30      16.652     0.000
  J14                     0.67     9.881      0  00:30      13.439     0.000
  J15                     0.67    14.378      0  00:30      19.298     0.000
  J16                     0.67     8.437      0  00:25      11.901     0.000
  J17                     0.67     0.638      0  00:05       0.542     0.000
  J18                     0.67     0.502      0  00:25       0.894     0.000
  J20                     0.67    28.288      0  00:30      39.109     0.000
  J21                     0.67     9.239      0  00:30      12.761     0.000
  J22                     0.67    18.760      0  00:30      24.488     0.000
  J23                     0.67    10.494      0  00:30      15.622     0.000
  J24                     0.67     1.331      0  00:25       1.867     0.000
  J26                     0.67     8.240      0  00:30      11.291     0.000
  J27                     0.67     7.851      0  00:25      12.347     0.000
  J29                     0.67    12.227      0  00:25      17.625     0.000
  J30                     0.67     1.259      0  00:05       1.172     0.000
  J31                     0.67    32.472      0  00:30      40.902     0.000
  J33                     0.67    11.474      0  00:30      14.980     0.000
  J32                     0.67     5.656      0  00:25       9.089     0.000
  J28                     0.67     9.272      0  00:25      15.125     0.000
  
  
  ***********************
  Outfall Loading Summary
  ***********************
  
  -----------------------------------------------------------
                         Flow       Avg       Max       Total
                         Freq      Flow      Flow      Volume
  Outfall Node           Pcnt       CMS       CMS    10^6 ltr
  -----------------------------------------------------------
  OF                   100.00     7.312     7.967      16.642
  -----------------------------------------------------------
  System               100.00     7.312     7.967      16.642
  
  
  ********************
  Link Flow Summary
  ********************
  
  -----------------------------------------------------------------------------
                                 Maximum  Time of Max   Maximum    Max/    Max/
                                  |Flow|   Occurrence   |Veloc|    Full    Full
  Link                 Type          CMS  days hr:min     m/sec    Flow   Depth
  -----------------------------------------------------------------------------
  P1                   PUMP        0.000     0  00:00                          
  C23                  CONDUIT     0.729     0  00:05      0.34    6.34    1.00
  C24                  CONDUIT     0.466     0  00:05      0.22    4.04    1.00
  C25                  CONDUIT     0.000     0  00:05      0.00    0.00    1.00
  C26                  CONDUIT     0.018     0  00:05      0.01    0.14    1.00
  C27                  CONDUIT     1.073     0  00:05      0.50    8.83    1.00
  C28                  CONDUIT     2.517     0  00:05      1.18   17.35    1.00
  C29                  CONDUIT     1.663     0  00:05      0.78   11.71    1.00
  C30                  CONDUIT     0.453     0  00:05      0.21    3.98    1.00
  C31                  CONDUIT     0.403     0  00:05      0.19    3.53    1.00
  C32                  CONDUIT     2.154     0  00:05      1.01   13.92    1.00
  C33                  CONDUIT     2.248     0  00:05      1.05   13.15    1.00
  C34                  CONDUIT     0.368     0  00:05      0.17    2.93    1.00
  C35                  CONDUIT     0.386     0  00:05      0.18    4.10    1.00
  C36                  CONDUIT     0.665     0  00:05      0.31    6.27    1.00
  C37                  CONDUIT     0.504     0  00:05      0.24    3.46    1.00
  C38                  CONDUIT     0.271     0  00:05      0.13    1.89    1.00
  C39                  CONDUIT     1.797     0  00:05      0.84   11.39    1.00
  C40                  CONDUIT     0.548     0  00:05      0.26    3.90    1.00
  C41                  CONDUIT     1.120     0  00:05      0.52    8.69    1.00
  C43                  CONDUIT     2.493     0  00:05      1.17   19.01    1.00
  C44                  CONDUIT     0.748     0  00:05      0.35    6.39    1.00
  C45                  CONDUIT     0.481     0  00:05      0.22    4.12    1.00
  C46                  CONDUIT     0.952     0  00:05      0.45    7.89    1.00
  C48                  CONDUIT     0.779     0  00:05      0.36    6.15    1.00
  C42                  CONDUIT     0.156     0  00:05      0.07    1.24    1.00
  C50                  CONDUIT     0.810     0  00:05      0.38    7.82    1.00
  C49                  CONDUIT     0.971     0  00:05      0.45    8.48    1.00
  C01                  CONDUIT     0.000     0  00:00      0.00    0.00    1.00
  C02                  CONDUIT     0.000     0  00:00      0.00    0.00    1.00
  C03                  CONDUIT     1.063     0  00:05      0.50    8.49    1.00
  C04                  CONDUIT     0.000     0  00:05      0.00    0.00    1.00
  C05                  CONDUIT     0.000     0  00:05      0.00    0.00    1.00
  C06                  CONDUIT     0.000     0  00:00      0.00    0.00    1.00
  C07                  CONDUIT     0.259     0  00:05      0.12    2.27    1.00
  C08                  CONDUIT     0.297     0  00:05      0.14    2.43    1.00
  C09                  CONDUIT     0.885     0  00:05      0.41    7.75    1.00
  C10                  CONDUIT     0.944     0  00:05      0.44    7.53    1.00
  C11                  CONDUIT     0.257     0  00:05      0.12    2.26    1.00
  C12                  CONDUIT     0.738     0  00:05      0.35    6.36    1.00
  C13                  CONDUIT     0.000     0  00:05      0.00    0.00    1.00
  C14                  CONDUIT     1.272     0  00:05      0.60   10.11    1.00
  C15                  CONDUIT     0.064     0  00:05      0.03    0.51    1.00
  C16                  CONDUIT     0.000     0  00:05      0.00    0.00    1.00
  C17                  CONDUIT     0.000     0  00:05      0.00    0.00    1.00
  C18                  CONDUIT     0.251     0  00:05      0.12    2.23    1.00
  C19                  CONDUIT     0.000     0  00:05      0.00    0.00    1.00
  C20                  CONDUIT     0.365     0  00:05      0.17    3.25    1.00
  C21                  CONDUIT     0.000     0  00:05      0.00    0.00    1.00
  C22                  CONDUIT     0.246     0  00:05      0.12    1.94    1.00
  C47                  CONDUIT     0.318     0  00:05      0.15    3.27    1.00
  Cout                 CONDUIT     7.967     0  00:05      3.85   62.91    0.93
  
  
  ***************************
  Flow Classification Summary
  ***************************
  
  -------------------------------------------------------------------------------------
                      Adjusted    ---------- Fraction of Time in Flow Class ---------- 
                       /Actual         Up    Down  Sub   Sup   Up    Down  Norm  Inlet 
  Conduit               Length    Dry  Dry   Dry   Crit  Crit  Crit  Crit  Ltd   Ctrl  
  -------------------------------------------------------------------------------------
  C23                     1.00   0.00  0.00  0.00  1.00  0.00  0.00  0.00  0.00  0.00
  C24                     1.00   0.00  0.00  0.00  1.00  0.00  0.00  0.00  0.00  0.00
  C25                     1.00   0.00  0.00  0.00  1.00  0.00  0.00  0.00  0.00  0.00
  C26                     1.00   0.00  0.00  0.00  1.00  0.00  0.00  0.00  0.00  0.00
  C27                     1.00   0.00  0.00  0.00  1.00  0.00  0.00  0.00  0.00  0.00
  C28                     1.00   0.00  0.00  0.00  1.00  0.00  0.00  0.00  0.00  0.00
  C29                     1.00   0.00  0.00  0.00  1.00  0.00  0.00  0.00  0.00  0.00
  C30                     1.00   0.00  0.00  0.00  1.00  0.00  0.00  0.00  0.00  0.00
  C31                     1.00   0.00  0.00  0.00  1.00  0.00  0.00  0.00  0.00  0.00
  C32                     1.00   0.00  0.00  0.00  1.00  0.00  0.00  0.00  0.00  0.00
  C33                     1.00   0.00  0.00  0.00  1.00  0.00  0.00  0.00  0.00  0.00
  C34                     1.00   0.00  0.00  0.00  1.00  0.00  0.00  0.00  0.00  0.00
  C35                     1.00   0.00  0.00  0.00  1.00  0.00  0.00  0.00  0.00  0.00
  C36                     1.00   0.00  0.00  0.00  1.00  0.00  0.00  0.00  0.00  0.00
  C37                     1.00   0.00  0.00  0.00  1.00  0.00  0.00  0.00  0.00  0.00
  C38                     1.00   0.00  0.00  0.00  1.00  0.00  0.00  0.00  0.00  0.00
  C39                     1.00   0.00  0.00  0.00  1.00  0.00  0.00  0.00  0.00  0.00
  C40                     1.00   0.00  0.00  0.00  1.00  0.00  0.00  0.00  0.00  0.00
  C41                     1.00   0.00  0.00  0.00  1.00  0.00  0.00  0.00  0.00  0.00
  C43                     1.00   0.00  0.00  0.00  1.00  0.00  0.00  0.00  0.00  0.00
  C44                     1.00   0.00  0.00  0.00  1.00  0.00  0.00  0.00  0.00  0.00
  C45                     1.00   0.00  0.00  0.00  1.00  0.00  0.00  0.00  0.00  0.00
  C46                     1.00   0.00  0.00  0.00  1.00  0.00  0.00  0.00  0.00  0.00
  C48                     1.00   0.00  0.00  0.00  1.00  0.00  0.00  0.00  0.00  0.00
  C42                     1.00   0.00  0.00  0.00  1.00  0.00  0.00  0.00  0.00  0.00
  C50                     1.00   0.00  0.00  0.00  1.00  0.00  0.00  0.00  0.00  0.00
  C49                     1.00   0.00  0.00  0.00  1.00  0.00  0.00  0.00  0.00  0.00
  C01                     1.00   0.00  0.00  0.00  1.00  0.00  0.00  0.00  0.00  0.00
  C02                     1.00   0.00  0.00  0.00  1.00  0.00  0.00  0.00  0.00  0.00
  C03                     1.00   0.00  0.00  0.00  1.00  0.00  0.00  0.00  0.00  0.00
  C04                     1.00   0.00  0.00  0.00  1.00  0.00  0.00  0.00  0.00  0.00
  C05                     1.00   0.00  0.00  0.00  1.00  0.00  0.00  0.00  0.00  0.00
  C06                     1.00   0.00  0.00  0.00  1.00  0.00  0.00  0.00  0.00  0.00
  C07                     1.00   0.00  0.00  0.00  1.00  0.00  0.00  0.00  0.00  0.00
  C08                     1.00   0.00  0.00  0.00  1.00  0.00  0.00  0.00  0.00  0.00
  C09                     1.00   0.00  0.00  0.00  1.00  0.00  0.00  0.00  0.00  0.00
  C10                     1.00   0.00  0.00  0.00  1.00  0.00  0.00  0.00  0.00  0.00
  C11                     1.00   0.00  0.00  0.00  1.00  0.00  0.00  0.00  0.00  0.00
  C12                     1.00   0.00  0.00  0.00  1.00  0.00  0.00  0.00  0.00  0.00
  C13                     1.00   0.00  0.00  0.00  1.00  0.00  0.00  0.00  0.00  0.00
  C14                     1.00   0.00  0.00  0.00  1.00  0.00  0.00  0.00  0.00  0.00
  C15                     1.00   0.00  0.00  0.00  1.00  0.00  0.00  0.00  0.00  0.00
  C16                     1.00   0.00  0.00  0.00  1.00  0.00  0.00  0.00  0.00  0.00
  C17                     1.00   0.00  0.00  0.00  1.00  0.00  0.00  0.00  0.00  0.00
  C18                     1.00   0.00  0.00  0.00  1.00  0.00  0.00  0.00  0.00  0.00
  C19                     1.00   0.00  0.00  0.00  1.00  0.00  0.00  0.00  0.00  0.00
  C20                     1.00   0.00  0.00  0.00  1.00  0.00  0.00  0.00  0.00  0.00
  C21                     1.00   0.00  0.00  0.00  1.00  0.00  0.00  0.00  0.00  0.00
  C22                     1.00   0.00  0.00  0.00  1.00  0.00  0.00  0.00  0.00  0.00
  C47                     1.00   0.00  0.00  0.00  1.00  0.00  0.00  0.00  0.00  0.00
  Cout                    1.00   0.00  0.00  0.00  1.00  0.00  0.00  0.00  0.00  0.00
  
  
  *************************
  Conduit Surcharge Summary
  *************************
  
  ----------------------------------------------------------------------------
                                                           Hours        Hours 
                         --------- Hours Full --------   Above Full   Capacity
  Conduit                Both Ends  Upstream  Dnstream   Normal Flow   Limited
  ----------------------------------------------------------------------------
  C23                         0.67      0.67      0.67      0.67         0.01
  C24                         0.67      0.67      0.67      0.67         0.01
  C25                         0.67      0.67      0.67      0.01         0.01
  C26                         0.67      0.67      0.67      0.01         0.01
  C27                         0.67      0.67      0.67      0.67         0.01
  C28                         0.67      0.67      0.67      0.67         0.01
  C29                         0.67      0.67      0.67      0.67         0.01
  C30                         0.67      0.67      0.67      0.67         0.01
  C31                         0.67      0.67      0.67      0.67         0.01
  C32                         0.67      0.67      0.67      0.67         0.22
  C33                         0.67      0.67      0.67      0.67         0.01
  C34                         0.67      0.67      0.67      0.66         0.01
  C35                         0.67      0.67      0.67      0.67         0.01
  C36                         0.67      0.67      0.67      0.67         0.01
  C37                         0.67      0.67      0.67      0.62         0.01
  C38                         0.67      0.67      0.67      0.44         0.01
  C39                         0.67      0.67      0.67      0.59         0.22
  C40                         0.67      0.67      0.67      0.67         0.01
  C41                         0.67      0.67      0.67      0.67         0.01
  C43                         0.67      0.67      0.67      0.67         0.01
  C44                         0.67      0.67      0.67      0.67         0.01
  C45                         0.67      0.67      0.67      0.67         0.01
  C46                         0.67      0.67      0.67      0.67         0.01
  C48                         0.67      0.67      0.67      0.67         0.01
  C42                         0.67      0.67      0.67      0.25         0.01
  C50                         0.67      0.67      0.67      0.67         0.01
  C49                         0.67      0.67      0.67      0.67         0.01
  C01                         0.67      0.67      0.67      0.01         0.01
  C02                         0.67      0.67      0.67      0.01         0.01
  C03                         0.67      0.67      0.67      0.67         0.01
  C04                         0.67      0.67      0.67      0.01         0.01
  C05                         0.67      0.67      0.67      0.01         0.01
  C06                         0.67      0.67      0.67      0.01         0.01
  C07                         0.67      0.67      0.67      0.62         0.01
  C08                         0.67      0.67      0.67      0.61         0.01
  C09                         0.67      0.67      0.67      0.67         0.01
  C10                         0.67      0.67      0.67      0.67         0.01
  C11                         0.67      0.67      0.67      0.62         0.01
  C12                         0.67      0.67      0.67      0.67         0.01
  C13                         0.67      0.67      0.67      0.01         0.01
  C14                         0.67      0.67      0.67      0.67         0.01
  C15                         0.67      0.67      0.67      0.01         0.01
  C16                         0.67      0.67      0.67      0.01         0.01
  C17                         0.67      0.67      0.67      0.01         0.01
  C18                         0.67      0.67      0.67      0.62         0.01
  C19                         0.67      0.67      0.67      0.01         0.01
  C20                         0.67      0.67      0.67      0.67         0.01
  C21                         0.67      0.67      0.67      0.01         0.01
  C22                         0.67      0.67      0.67      0.50         0.01
  C47                         0.67      0.67      0.67      0.67         0.01
  Cout                        0.01      0.67      0.01      0.67         0.01
  
  
  ***************
  Pumping Summary
  ***************
  
  ---------------------------------------------------------------------------------------------------------
                                                  Min       Avg       Max     Total     Power    % Time Off
                        Percent   Number of      Flow      Flow      Flow    Volume     Usage    Pump Curve
  Pump                 Utilized   Start-Ups       CMS       CMS       CMS  10^6 ltr     Kw-hr    Low   High
  ---------------------------------------------------------------------------------------------------------
  P1                       0.00           0      0.00      0.00      0.00     0.000      0.00    0.0    0.0
  

  Analysis begun on:  Mon Nov 25 18:32:25 2024
  Analysis ended on:  Mon Nov 25 18:32:25 2024
  Total elapsed time: < 1 sec