
  EPA STORM WATER MANAGEMENT MODEL - VERSION 5.2 (Build 5.2.4)
  PYSWMM TOOLKIT API - VERSION v1.0 (2023-11-27)
  ------------------------------------------------------------

  WARNING 04: minimum elevation drop used for Conduit C23
  WARNING 04: minimum elevation drop used for Conduit C24
  WARNING 04: minimum elevation drop used for Conduit C25
  WARNING 04: minimum elevation drop used for Conduit C26
  WARNING 04: minimum elevation drop used for Conduit C27
  WARNING 04: minimum elevation drop used for Conduit C28
  WARNING 04: minimum elevation drop used for Conduit C29
  WARNING 04: minimum elevation drop used for Conduit C30
  WARNING 04: minimum elevation drop used for Conduit C31
  WARNING 04: minimum elevation drop used for Conduit C32
  WARNING 04: minimum elevation drop used for Conduit C33
  WARNING 04: minimum elevation drop used for Conduit C34
  WARNING 04: minimum elevation drop used for Conduit C35
  WARNING 04: minimum elevation drop used for Conduit C36
  WARNING 04: minimum elevation drop used for Conduit C37
  WARNING 04: minimum elevation drop used for Conduit C38
  WARNING 04: minimum elevation drop used for Conduit C39
  WARNING 04: minimum elevation drop used for Conduit C40
  WARNING 04: minimum elevation drop used for Conduit C41
  WARNING 04: minimum elevation drop used for Conduit C43
  WARNING 04: minimum elevation drop used for Conduit C44
  WARNING 04: minimum elevation drop used for Conduit C45
  WARNING 04: minimum elevation drop used for Conduit C46
  WARNING 04: minimum elevation drop used for Conduit C48
  WARNING 04: minimum elevation drop used for Conduit C42
  WARNING 04: minimum elevation drop used for Conduit C50
  WARNING 04: minimum elevation drop used for Conduit C49
  WARNING 04: minimum elevation drop used for Conduit C01
  WARNING 04: minimum elevation drop used for Conduit C02
  WARNING 04: minimum elevation drop used for Conduit C03
  WARNING 04: minimum elevation drop used for Conduit C04
  WARNING 04: minimum elevation drop used for Conduit C05
  WARNING 04: minimum elevation drop used for Conduit C06
  WARNING 04: minimum elevation drop used for Conduit C07
  WARNING 04: minimum elevation drop used for Conduit C08
  WARNING 04: minimum elevation drop used for Conduit C09
  WARNING 04: minimum elevation drop used for Conduit C10
  WARNING 04: minimum elevation drop used for Conduit C11
  WARNING 04: minimum elevation drop used for Conduit C12
  WARNING 04: minimum elevation drop used for Conduit C13
  WARNING 04: minimum elevation drop used for Conduit C14
  WARNING 04: minimum elevation drop used for Conduit C15
  WARNING 04: minimum elevation drop used for Conduit C16
  WARNING 04: minimum elevation drop used for Conduit C17
  WARNING 04: minimum elevation drop used for Conduit C18
  WARNING 04: minimum elevation drop used for Conduit C19
  WARNING 04: minimum elevation drop used for Conduit C20
  WARNING 04: minimum elevation drop used for Conduit C21
  WARNING 04: minimum elevation drop used for Conduit C22
  WARNING 04: minimum elevation drop used for Conduit C47
  WARNING 04: minimum elevation drop used for Conduit Cout
  
  ****************
  Analysis Options
  ****************
  Flow Units ............... CMS
  Process Models:
    Rainfall/Runoff ........ YES
    RDII ................... NO
    Snowmelt ............... NO
    Groundwater ............ NO
    Flow Routing ........... YES
    Ponding Allowed ........ NO
    Water Quality .......... NO
  Infiltration Method ...... HORTON
  Flow Routing Method ...... DYNWAVE
  Surcharge Method ......... EXTRAN
  Starting Date ............ 05/27/2023 12:00:00
  Ending Date .............. 05/27/2023 12:40:00
  Antecedent Dry Days ...... 0.0
  Report Time Step ......... 00:10:00
  Wet Time Step ............ 00:05:00
  Dry Time Step ............ 01:00:00
  Routing Time Step ........ 300.00 sec
  Variable Time Step ....... YES
  Maximum Trials ........... 8
  Number of Threads ........ 1
  Head Tolerance ........... 0.001524 m
  
  
  *********************
  Rainfall File Summary
  *********************
  Station    First        Last         Recording   Periods    Periods    Periods
  ID         Date         Date         Frequency  w/Precip    Missing    Malfunc.
  -------------------------------------------------------------------------------
  392        05/27/2023   05/27/2023      10 min         5          0          0

  
  
  **************************        Volume         Depth
  Runoff Quantity Continuity     hectare-m            mm
  **************************     ---------       -------
  Total Precipitation ......       148.584      1485.900
  Evaporation Loss .........         0.000         0.000
  Infiltration Loss ........         0.000         0.000
  Surface Runoff ...........       139.273      1392.788
  Final Storage ............        12.564       125.646
  Continuity Error (%) .....        -2.190
  
  
  **************************        Volume        Volume
  Flow Routing Continuity        hectare-m      10^6 ltr
  **************************     ---------     ---------
  Dry Weather Inflow .......         0.000         0.000
  Wet Weather Inflow .......       123.408      1234.094
  Groundwater Inflow .......         0.000         0.000
  RDII Inflow ..............         0.000         0.000
  External Inflow ..........         0.000         0.000
  External Outflow .........         1.664        16.641
  Flooding Loss ............       120.587      1205.886
  Evaporation Loss .........         0.000         0.000
  Exfiltration Loss ........         0.000         0.000
  Initial Stored Volume ....         0.046         0.463
  Final Stored Volume ......         1.883        18.831
  Continuity Error (%) .....        -0.551
  
  
  *************************
  Highest Continuity Errors
  *************************
  Node J3 (-91.49%)
  Node J24 (14.48%)
  Node J17 (-14.33%)
  Node J18 (12.77%)
  Node J30 (-12.69%)
  
  
  ***************************
  Time-Step Critical Elements
  ***************************
  Link Cout (96.75%)
  
  
  ********************************
  Highest Flow Instability Indexes
  ********************************
  Link C23 (4)
  Link C49 (4)
  Link C27 (3)
  Link C37 (3)
  Link C39 (3)
  
  
  *********************************
  Most Frequent Nonconverging Nodes
  *********************************
  Node J27 (3.25%)
  Node OF (3.25%)
  Node J11 (2.60%)
  Node J16 (2.60%)
  Node J18 (2.60%)
  
  
  *************************
  Routing Time Step Summary
  *************************
  Minimum Time Step           :     6.54 sec
  Average Time Step           :    15.58 sec
  Maximum Time Step           :   300.00 sec
  % of Time in Steady State   :     0.00
  Average Iterations per Step :     2.20
  % of Steps Not Converging   :     3.25
  Time Step Frequencies       :
     300.000 - 83.462 sec      :     0.65 %
     83.462 - 23.220 sec      :     0.00 %
     23.220 -  6.460 sec      :    99.35 %
      6.460 -  1.797 sec      :     0.00 %
      1.797 -  0.500 sec      :     0.00 %
  
  
  ***************************
  Subcatchment Runoff Summary
  ***************************
  
  ------------------------------------------------------------------------------------------------------------------------------
                            Total      Total      Total      Total     Imperv       Perv      Total       Total     Peak  Runoff
                           Precip      Runon       Evap      Infil     Runoff     Runoff     Runoff      Runoff   Runoff   Coeff
  Subcatchment                 mm         mm         mm         mm         mm         mm         mm    10^6 ltr      CMS
  ------------------------------------------------------------------------------------------------------------------------------
  S1                      1485.90       0.00       0.00       0.00      14.71    1471.19    1485.90      374.83   256.32   1.000
  S2                      1485.90       0.00       0.00       0.00      13.52    1468.58    1482.10       11.52     7.89   0.997
  S3                      1485.90       0.00       0.00       0.00      13.52    1472.38    1485.90        3.08     2.10   1.000
  S4                      1485.90       0.00       0.00       0.00      13.52    1472.38    1485.90        3.05     2.08   1.000
  S5                      1485.90       0.00       0.00       0.00      13.52    1472.38    1485.90        4.44     3.04   1.000
  S6                      1485.90       0.00       0.00       0.00      13.52    1472.38    1485.90       12.24     8.37   1.000
  S7                      1485.90       0.00       0.00       0.00      13.52    1472.38    1485.90        2.30     1.57   1.000
  S8                      1485.90       0.00       0.00       0.00      13.52    1472.38    1485.90        7.24     4.95   1.000
  S9                      1485.90       0.00       0.00       0.00      13.52    1472.38    1485.90        8.95     6.12   1.000
  S10                     1485.90       0.00       0.00       0.00       0.00    1472.38    1472.38        2.08     1.42   0.991
  S11                     1485.90       0.00       0.00       0.00      13.52    1403.23    1416.75       20.73    14.85   0.953
  S12                     1485.90       0.00       0.00       0.00      13.52    1472.38    1485.90       12.90     8.82   1.000
  S13                     1485.90       0.00       0.00       0.00       0.00    1472.38    1472.38       12.43     8.50   0.991
  S14                     1485.90       0.00       0.00       0.00      12.48    1473.42    1485.90       11.93     8.16   1.000
  S15                     1485.90       0.00       0.00       0.00      12.48    1473.42    1485.90       11.14     7.62   1.000
  S16                     1485.90       0.00       0.00       0.00      11.44    1457.10    1468.54       25.93    17.94   0.988
  S17                     1485.90       0.00       0.00       0.00      11.44    1302.86    1314.30       44.75    34.30   0.885
  S18                     1485.90       0.00       0.00       0.00      11.44    1474.33    1485.77        1.92     1.31   1.000
  S19                     1485.90       0.00       0.00       0.00      11.44       0.00      11.44        0.03     0.02   0.008
  S20                     1485.90       0.00       0.00       0.00      11.44    1474.42    1485.86        1.52     1.04   1.000
  S21                     1485.90       0.00       0.00       0.00      11.44    1434.59    1446.03       23.98    16.84   0.973
  S22                     1485.90       0.00       0.00       0.00      11.44    1474.37    1485.81        0.49     0.34   1.000
  S23                     1485.90       0.00       0.00       0.00      11.44    1474.46    1485.90        0.58     0.40   1.000
  S24                     1485.90       0.00       0.00       0.00      11.44    1474.46    1485.90        0.73     0.50   1.000
  S25                     1485.90       0.00       0.00       0.00      11.44    1474.46    1485.90        0.88     0.60   1.000
  S26                     1485.90       0.00       0.00       0.00      11.44    1474.46    1485.90        1.03     0.70   1.000
  S27                     1485.90       0.00       0.00       0.00      11.44    1473.62    1485.06       12.34     8.44   0.999
  S28                     1485.90       0.00       0.00       0.00      11.44    1438.62    1450.06       12.88     9.02   0.976
  S29                     1485.90       0.00       0.00       0.00      11.44    1474.38    1485.82        1.37     0.93   1.000
  S30                     1485.90       0.00       0.00       0.00      11.44    1252.80    1264.24       80.53    63.71   0.851
  S31                     1485.90       0.00       0.00       0.00      11.89    1474.01    1485.90       20.13    13.77   1.000
  S32                     1485.90       0.00       0.00       0.00      11.89    1474.01    1485.90        6.20     4.24   1.000
  S33                     1485.90       0.00       0.00       0.00      13.97    1471.93    1485.90        4.62     3.16   1.000
  S34                     1485.90       0.00       0.00       0.00      13.97    1471.93    1485.90        4.89     3.34   1.000
  S35                     1485.90       0.00       0.00       0.00      13.52    1472.38    1485.90        5.97     4.08   1.000
  S36                     1485.90       0.00       0.00       0.00      13.52    1472.38    1485.90        2.45     1.68   1.000
  S37                     1485.90       0.00       0.00       0.00      13.52    1472.38    1485.90        5.35     3.66   1.000
  S38                     1485.90       0.00       0.00       0.00      13.52    1472.38    1485.90        0.24     0.16   1.000
  S39                     1485.90       0.00       0.00       0.00      13.52    1472.38    1485.90        6.09     4.17   1.000
  S40                     1485.90       0.00       0.00       0.00      13.52    1472.38    1485.90        2.10     1.43   1.000
  S41                     1485.90       0.00       0.00       0.00      13.52    1472.38    1485.90        3.37     2.31   1.000
  S42                     1485.90       0.00       0.00       0.00      13.52    1472.38    1485.90        4.70     3.21   1.000
  S43                     1485.90       0.00       0.00       0.00      13.52    1472.38    1485.90       10.70     7.32   1.000
  S44                     1485.90       0.00       0.00       0.00      13.52    1472.38    1485.90        7.76     5.30   1.000
  S45                     1485.90       0.00       0.00       0.00      13.52    1472.38    1485.90        0.79     0.54   1.000
  S46                     1485.90       0.00       0.00       0.00      13.52    1472.38    1485.90        7.19     4.92   1.000
  S47                     1485.90       0.00       0.00       0.00      13.52    1472.38    1485.90       14.53     9.94   1.000
  S48                     1485.90       0.00       0.00       0.00      13.52    1472.38    1485.90       16.79    11.48   1.000
  S49                     1485.90       0.00       0.00       0.00      13.52    1472.38    1485.90       10.21     6.98   1.000
  S50                     1485.90       0.00       0.00       0.00      13.52    1472.38    1485.90        8.41     5.75   1.000
  S51                     1485.90       0.00       0.00       0.00      13.52    1472.38    1485.90        4.96     3.39   1.000
  S52                     1485.90       0.00       0.00       0.00      13.52    1472.38    1485.90       13.15     8.99   1.000
  S53                     1485.90       0.00       0.00       0.00      13.52    1438.21    1451.73       17.68    12.37   0.977
  S54                     1485.90       0.00       0.00       0.00      13.52    1466.21    1479.74        6.76     4.64   0.996
  S55                     1485.90       0.00       0.00       0.00      13.52    1472.38    1485.90        0.56     0.39   1.000
  S56                     1485.90       0.00       0.00       0.00      13.52    1472.25    1485.77        0.56     0.39   1.000
  S57                     1485.90       0.00       0.00       0.00      13.52    1472.38    1485.90        7.68     5.25   1.000
  S58                     1485.90       0.00       0.00       0.00      13.52    1472.38    1485.90        9.87     6.75   1.000
  S59                     1485.90       0.00       0.00       0.00      13.52    1472.38    1485.90        9.58     6.55   1.000
  S60                     1485.90       0.00       0.00       0.00      11.44    1471.63    1483.07        5.83     3.99   0.998
  S61                     1485.90       0.00       0.00       0.00      11.44       0.00      11.44        0.04     0.03   0.008
  S62                     1485.90       0.00       0.00       0.00      11.44    1216.96    1228.40       65.83    53.26   0.827
  S63                     1485.90       0.00       0.00       0.00      11.44    1474.46    1485.90       13.97     9.55   1.000
  S64                     1485.90       0.00       0.00       0.00      11.44    1474.46    1485.90       37.82    25.86   1.000
  S65                     1485.90       0.00       0.00       0.00      11.44    1474.46    1485.90        6.03     4.13   1.000
  S66                     1485.90       0.00       0.00       0.00      11.44    1474.46    1485.90        9.73     6.66   1.000
  S67                     1485.90       0.00       0.00       0.00      11.44    1474.46    1485.90       18.19    12.44   1.000
  S68                     1485.90       0.00       0.00       0.00      11.44    1474.46    1485.90       21.32    14.58   1.000
  S69                     1485.90       0.00       0.00       0.00      11.44       0.00      11.44        0.28     0.19   0.008
  S70                     1485.90       0.00       0.00       0.00      11.44    1432.73    1444.17       37.79    26.59   0.972
  S71                     1485.90       0.00       0.00       0.00      13.52    1472.38    1485.90       21.86    14.95   1.000
  S72                     1485.90       0.00       0.00       0.00      11.44    1460.33    1471.77        7.30     5.04   0.990
  S73                     1485.90       0.00       0.00       0.00      11.44    1474.46    1485.90       31.14    21.30   1.000
  S74                     1485.90       0.00       0.00       0.00      11.44       0.00      11.44        0.08     0.05   0.008
  S75                     1485.90       0.00       0.00       0.00      11.44    1474.46    1485.90        1.00     0.68   1.000
  S76                     1485.90       0.00       0.00       0.00      11.44    1474.46    1485.90       19.63    13.42   1.000
  S77                     1485.90       0.00       0.00       0.00      11.44    1474.46    1485.90       15.88    10.86   1.000
  S78                     1485.90       0.00       0.00       0.00      11.44    1474.46    1485.90       11.52     7.87   1.000
  S79                     1485.90       0.00       0.00       0.00      13.52    1472.38    1485.90       10.09     6.90   1.000
  S80                     1485.90       0.00       0.00       0.00      11.44    1473.73    1485.17        4.10     2.80   1.000
  S81                     1485.90       0.00       0.00       0.00      11.44    1474.46    1485.90       16.81    11.49   1.000
  S82                     1485.90       0.00       0.00       0.00      11.44    1474.46    1485.90       16.40    11.22   1.000
  S83                     1485.90       0.00       0.00       0.00      11.44    1474.46    1485.90       10.55     7.21   1.000
  S84                     1485.90       0.00       0.00       0.00      13.52    1472.38    1485.90        6.89     4.71   1.000
  S85                     1485.90       0.00       0.00       0.00      13.52    1446.63    1460.15       18.05    12.56   0.983
  S86                     1485.90       0.00       0.00       0.00       0.00    1472.38    1472.38       17.04    11.65   0.991
  S87                     1485.90       0.00       0.00       0.00      13.52    1472.38    1485.90       18.45    12.62   1.000
  S88                     1485.90       0.00       0.00       0.00      13.52    1472.38    1485.90        3.33     2.28   1.000
  S89                     1485.90       0.00       0.00       0.00      13.52    1472.38    1485.90       15.02    10.27   1.000
  S90                     1485.90       0.00       0.00       0.00       0.00    1472.38    1472.38        7.23     4.94   0.991
  S91                     1485.90       0.00       0.00       0.00      13.52    1472.38    1485.90        2.45     1.68   1.000
  
  
  ******************
  Node Depth Summary
  ******************
  
  ---------------------------------------------------------------------------------
                                 Average  Maximum  Maximum  Time of Max    Reported
                                   Depth    Depth      HGL   Occurrence   Max Depth
  Node                 Type       Meters   Meters   Meters  days hr:min      Meters
  ---------------------------------------------------------------------------------
  J7                   JUNCTION     2.48     2.50     2.50     0  00:05        2.50
  J13                  JUNCTION     2.48     2.50     2.50     0  00:05        2.50
  J19                  JUNCTION     2.48     2.50     2.50     0  00:05        2.50
  J25                  JUNCTION     2.47     2.50     2.50     0  00:05        2.50
  J1                   JUNCTION     2.48     2.50     2.50     0  00:05        2.50
  J2                   JUNCTION     2.48     2.50     2.50     0  00:05        2.50
  J3                   JUNCTION     2.47     2.50     2.50     0  00:05        2.50
  J4                   JUNCTION     2.48     2.50     2.50     0  00:05        2.50
  J5                   JUNCTION     2.48     2.50     2.50     0  00:05        2.50
  J6                   JUNCTION     2.48     2.50     2.50     0  00:05        2.50
  J8                   JUNCTION     2.47     2.50     2.50     0  00:05        2.50
  J9                   JUNCTION     2.47     2.50     2.50     0  00:05        2.50
  J10                  JUNCTION     2.47     2.50     2.50     0  00:05        2.50
  J11                  JUNCTION     2.47     2.50     2.50     0  00:05        2.50
  J12                  JUNCTION     2.48     2.50     2.50     0  00:05        2.50
  J14                  JUNCTION     2.48     2.50     2.50     0  00:05        2.50
  J15                  JUNCTION     2.47     2.50     2.50     0  00:05        2.50
  J16                  JUNCTION     2.47     2.50     2.50     0  00:05        2.50
  J17                  JUNCTION     2.47     2.50     2.50     0  00:05        2.50
  J18                  JUNCTION     2.47     2.50     2.50     0  00:05        2.50
  J20                  JUNCTION     2.48     2.50     2.50     0  00:05        2.50
  J21                  JUNCTION     2.48     2.50     2.50     0  00:05        2.50
  J22                  JUNCTION     2.48     2.50     2.50     0  00:05        2.50
  J23                  JUNCTION     2.48     2.50     2.50     0  00:05        2.50
  J24                  JUNCTION     2.48     2.50     2.50     0  00:05        2.50
  J26                  JUNCTION     2.48     2.50     2.50     0  00:05        2.50
  J27                  JUNCTION     2.47     2.50     2.50     0  00:05        2.50
  J29                  JUNCTION     2.47     2.50     2.50     0  00:05        2.50
  J30                  JUNCTION     2.48     2.50     2.50     0  00:05        2.50
  J31                  JUNCTION     2.48     2.50     2.50     0  00:05        2.50
  J33                  JUNCTION     2.48     2.50     2.50     0  00:05        2.50
  J32                  JUNCTION     2.48     2.50     2.50     0  00:05        2.50
  J28                  JUNCTION     2.48     2.50     2.50     0  00:05        2.50
  OF                   OUTFALL      1.36     1.41     1.41     0  00:05        1.37
  
  
  *******************
  Node Inflow Summary
  *******************
  
  -------------------------------------------------------------------------------------------------
                                  Maximum  Maximum                  Lateral       Total        Flow
                                  Lateral    Total  Time of Max      Inflow      Inflow     Balance
                                   Inflow   Inflow   Occurrence      Volume      Volume       Error
  Node                 Type           CMS      CMS  days hr:min    10^6 ltr    10^6 ltr     Percent
  -------------------------------------------------------------------------------------------------
  J7                   JUNCTION    70.027   70.385     0  00:40        78.3        81.7       1.444
  J13                  JUNCTION     5.797    5.998     0  00:35        7.46        9.12       0.816
  J19                  JUNCTION   274.724  274.724     0  00:40         357         357       0.975
  J25                  JUNCTION    34.265   34.445     0  00:40        39.1        40.4      -3.094
  J1                   JUNCTION    23.060   23.686     0  00:35          30        35.6       7.845
  J2                   JUNCTION    17.325   17.627     0  00:35        22.5        24.2       1.906
  J3                   JUNCTION     0.772    3.620     0  00:05           1         2.8     -47.778
  J4                   JUNCTION    50.165   50.761     0  00:35        65.2        72.2       3.837
  J5                   JUNCTION    41.478   41.802     0  00:35        53.9        55.1      -0.806
  J6                   JUNCTION    18.148   18.359     0  00:35        23.6        25.5       0.035
  J8                   JUNCTION    27.923   28.030     0  00:35        36.3        36.6      -0.471
  J9                   JUNCTION    12.557   12.715     0  00:40          16        16.8      -4.635
  J10                  JUNCTION    18.737   18.921     0  00:35        24.4        25.6       0.432
  J11                  JUNCTION    20.130   20.534     0  00:35        26.2        29.1      -1.357
  J12                  JUNCTION    21.298   21.909     0  00:35        27.7        34.1       5.134
  J14                  JUNCTION    18.046   18.046     0  00:35        23.5        23.5       0.240
  J15                  JUNCTION    25.827   26.132     0  00:40        33.2        34.5      -1.474
  J16                  JUNCTION    14.947   15.246     0  00:35        19.4        20.6      -3.376
  J17                  JUNCTION     0.194    3.546     0  00:05       0.253        2.97     -12.532
  J18                  JUNCTION     0.681    5.725     0  00:05       0.885        2.75      14.641
  J20                  JUNCTION    50.470   50.636     0  00:40        64.6        65.9       1.345
  J21                  JUNCTION    16.657   17.078     0  00:35        21.7        25.9       3.602
  J22                  JUNCTION    34.203   34.510     0  00:40        43.4        45.7       1.440
  J23                  JUNCTION    17.943   18.304     0  00:35          23        26.6       3.437
  J24                  JUNCTION     2.366    8.178     0  00:05        3.08        5.33      16.925
  J26                  JUNCTION    14.713   14.914     0  00:35        19.1        20.7       1.253
  J27                  JUNCTION    12.905   12.939     0  00:40        16.7        17.1      -0.319
  J29                  JUNCTION    21.166   21.525     0  00:35        27.5        28.9      -2.065
  J30                  JUNCTION     0.000    1.126     0  00:05           0        1.12     -11.262
  J31                  JUNCTION    63.635   63.635     0  00:40        70.1        70.4       0.976
  J33                  JUNCTION    20.825   20.825     0  00:40          27          27       1.126
  J32                  JUNCTION     9.501    9.697     0  00:35        12.4        13.4      -0.985
  J28                  JUNCTION    15.191   15.413     0  00:35        19.7          22       9.736
  OF                   OUTFALL      0.000    7.967     0  00:05           0        16.6       0.000
  
  
  **********************
  Node Surcharge Summary
  **********************
  
  Surcharging occurs when water rises above the top of the highest conduit.
  ---------------------------------------------------------------------
                                               Max. Height   Min. Depth
                                   Hours       Above Crown    Below Rim
  Node                 Type      Surcharged         Meters       Meters
  ---------------------------------------------------------------------
  J7                   JUNCTION        0.67          0.850        0.000
  J13                  JUNCTION        0.67          0.850        0.000
  J19                  JUNCTION        0.67          0.850        0.000
  J25                  JUNCTION        0.67          0.850        0.000
  J1                   JUNCTION        0.67          0.850        0.000
  J2                   JUNCTION        0.67          0.850        0.000
  J3                   JUNCTION        0.66          0.850        0.000
  J4                   JUNCTION        0.67          0.850        0.000
  J5                   JUNCTION        0.67          0.850        0.000
  J6                   JUNCTION        0.67          0.850        0.000
  J8                   JUNCTION        0.67          0.850        0.000
  J9                   JUNCTION        0.67          0.850        0.000
  J10                  JUNCTION        0.67          0.850        0.000
  J11                  JUNCTION        0.67          0.850        0.000
  J12                  JUNCTION        0.67          0.850        0.000
  J14                  JUNCTION        0.67          0.850        0.000
  J15                  JUNCTION        0.66          0.850        0.000
  J16                  JUNCTION        0.67          0.850        0.000
  J17                  JUNCTION        0.66          0.850        0.000
  J18                  JUNCTION        0.67          0.850        0.000
  J20                  JUNCTION        0.67          0.850        0.000
  J21                  JUNCTION        0.67          0.850        0.000
  J22                  JUNCTION        0.67          0.850        0.000
  J23                  JUNCTION        0.67          0.850        0.000
  J24                  JUNCTION        0.67          0.850        0.000
  J26                  JUNCTION        0.67          0.850        0.000
  J27                  JUNCTION        0.67          0.850        0.000
  J29                  JUNCTION        0.66          0.850        0.000
  J30                  JUNCTION        0.67          0.850        0.000
  J31                  JUNCTION        0.67          0.850        0.000
  J33                  JUNCTION        0.67          0.850        0.000
  J32                  JUNCTION        0.67          0.850        0.000
  J28                  JUNCTION        0.67          0.850        0.000
  
  
  *********************
  Node Flooding Summary
  *********************
  
  Flooding refers to all water that overflows a node, whether it ponds or not.
  --------------------------------------------------------------------------
                                                             Total   Maximum
                                 Maximum   Time of Max       Flood    Ponded
                        Hours       Rate    Occurrence      Volume     Depth
  Node                 Flooded       CMS   days hr:min    10^6 ltr    Meters
  --------------------------------------------------------------------------
  J7                      0.67    70.313      0  00:40      81.706     0.000
  J13                     0.58     5.796      0  00:40       7.333     0.000
  J19                     0.67   267.188      0  00:40     338.287     0.000
  J25                     0.57    34.064      0  00:40      38.134     0.000
  J1                      0.58    23.684      0  00:35      33.216     0.000
  J2                      0.58    17.418      0  00:35      22.078     0.000
  J3                      0.58     3.261      0  00:05       2.402     0.000
  J4                      0.67    50.552      0  00:35      71.136     0.000
  J5                      0.58    41.279      0  00:40      51.450     0.000
  J6                      0.58    17.820      0  00:40      21.641     0.000
  J8                      0.58    27.685      0  00:40      34.219     0.000
  J9                      0.58    12.309      0  00:40      14.892     0.000
  J10                     0.57    18.444      0  00:40      22.585     0.000
  J11                     0.57    20.127      0  00:40      25.495     0.000
  J12                     0.67    21.907      0  00:35      34.069     0.000
  J14                     0.58    17.625      0  00:40      21.322     0.000
  J15                     0.57    25.793      0  00:40      32.129     0.000
  J16                     0.57    14.911      0  00:40      18.716     0.000
  J17                     0.57     2.487      0  00:05       1.705     0.000
  J18                     0.51     0.573      0  00:40       0.620     0.000
  J20                     0.58    50.449      0  00:40      63.390     0.000
  J21                     0.67    16.875      0  00:35      24.507     0.000
  J22                     0.58    34.322      0  00:40      43.151     0.000
  J23                     0.67    18.103      0  00:40      25.292     0.000
  J24                     0.58     2.364      0  00:40       2.973     0.000
  J26                     0.58    14.706      0  00:40      18.605     0.000
  J27                     0.57    12.627      0  00:40      15.227     0.000
  J29                     0.57    21.297      0  00:35      27.521     0.000
  J30                     0.57     0.192      0  00:12       0.323     0.000
  J31                     0.67    63.271      0  00:40      69.239     0.000
  J33                     0.67    20.653      0  00:40      26.072     0.000
  J32                     0.57     9.342      0  00:40      11.415     0.000
  J28                     0.58    15.287      0  00:35      19.822     0.000
  
  
  ***********************
  Outfall Loading Summary
  ***********************
  
  -----------------------------------------------------------
                         Flow       Avg       Max       Total
                         Freq      Flow      Flow      Volume
  Outfall Node           Pcnt       CMS       CMS    10^6 ltr
  -----------------------------------------------------------
  OF                   100.00     7.314     7.967      16.641
  -----------------------------------------------------------
  System               100.00     7.314     7.967      16.641
  
  
  ********************
  Link Flow Summary
  ********************
  
  -----------------------------------------------------------------------------
                                 Maximum  Time of Max   Maximum    Max/    Max/
                                  |Flow|   Occurrence   |Veloc|    Full    Full
  Link                 Type          CMS  days hr:min     m/sec    Flow   Depth
  -----------------------------------------------------------------------------
  P1                   PUMP        0.000     0  00:00                          
  C23                  CONDUIT     0.688     0  00:05      0.32    5.98    1.00
  C24                  CONDUIT     1.269     0  00:05      0.59   11.00    1.00
  C25                  CONDUIT     2.060     0  00:05      0.96   16.46    1.00
  C26                  CONDUIT     2.147     0  00:05      1.00   16.80    1.00
  C27                  CONDUIT     0.899     0  00:05      0.42    7.39    1.00
  C28                  CONDUIT     4.973     0  00:05      2.33   34.27    1.00
  C29                  CONDUIT     3.862     0  00:05      1.81   27.20    1.00
  C30                  CONDUIT     3.610     0  00:05      1.69   31.72    1.00
  C31                  CONDUIT     3.264     0  00:05      1.53   28.56    1.00
  C32                  CONDUIT     5.332     0  00:05      2.49   34.46    1.00
  C33                  CONDUIT    10.712     0  00:05      5.01   62.68    1.00
  C34                  CONDUIT     5.998     0  00:05      2.80   47.73    1.00
  C35                  CONDUIT     0.727     0  00:05      0.34    7.74    1.00
  C36                  CONDUIT     3.395     0  00:05      1.59   32.03    1.00
  C37                  CONDUIT     0.290     0  00:05      0.14    1.99    1.00
  C38                  CONDUIT     3.880     0  00:05      1.81   27.05    1.00
  C39                  CONDUIT     1.305     0  00:05      0.64    8.27    1.00
  C40                  CONDUIT     4.396     0  00:05      2.06   31.34    1.00
  C41                  CONDUIT     3.570     0  00:05      1.67   27.69    1.00
  C43                  CONDUIT     1.515     0  00:05      0.71   11.55    1.00
  C44                  CONDUIT     5.219     0  00:05      2.44   44.56    1.00
  C45                  CONDUIT     0.367     0  00:05      0.17    3.15    1.00
  C46                  CONDUIT     1.185     0  00:05      0.55    9.82    1.00
  C48                  CONDUIT     3.949     0  00:05      1.85   31.19    1.00
  C42                  CONDUIT     1.067     0  00:05      0.50    8.46    1.00
  C50                  CONDUIT     0.788     0  00:05      0.37    7.61    1.00
  C49                  CONDUIT     1.213     0  00:05      0.57   10.59    1.00
  C01                  CONDUIT     4.494     0  00:05      2.10   36.90    1.00
  C02                  CONDUIT     2.216     0  00:05      1.04   17.53    1.00
  C03                  CONDUIT     5.428     0  00:05      2.54   43.35    1.00
  C04                  CONDUIT     2.581     0  00:05      1.21   20.30    1.00
  C05                  CONDUIT     7.882     0  00:05      3.69   62.86    1.00
  C06                  CONDUIT     2.714     0  00:05      1.27   23.83    1.00
  C07                  CONDUIT     6.424     0  00:05      3.00   56.34    1.00
  C08                  CONDUIT     0.768     0  00:05      0.36    6.29    1.00
  C09                  CONDUIT     3.184     0  00:05      1.49   27.88    1.00
  C10                  CONDUIT     0.978     0  00:05      0.46    7.80    1.00
  C11                  CONDUIT     0.256     0  00:05      0.12    2.25    1.00
  C12                  CONDUIT     4.254     0  00:05      1.99   36.65    1.00
  C13                  CONDUIT     3.760     0  00:05      1.76   32.72    1.00
  C14                  CONDUIT     3.521     0  00:05      1.65   27.98    1.00
  C15                  CONDUIT     1.881     0  00:05      0.88   14.94    1.00
  C16                  CONDUIT     3.330     0  00:05      1.56   29.23    1.00
  C17                  CONDUIT     1.232     0  00:05      0.58   10.87    1.00
  C18                  CONDUIT     5.001     0  00:05      2.34   44.46    1.00
  C19                  CONDUIT     3.800     0  00:05      1.78   30.19    1.00
  C20                  CONDUIT     3.453     0  00:05      1.61   30.74    1.00
  C21                  CONDUIT     3.444     0  00:05      1.61   32.53    1.00
  C22                  CONDUIT    11.386     0  00:05      5.32   89.87    1.00
  C47                  CONDUIT     0.644     0  00:05      0.30    6.62    1.00
  Cout                 CONDUIT     7.967     0  00:05      3.85   62.91    0.93
  
  
  ***************************
  Flow Classification Summary
  ***************************
  
  -------------------------------------------------------------------------------------
                      Adjusted    ---------- Fraction of Time in Flow Class ---------- 
                       /Actual         Up    Down  Sub   Sup   Up    Down  Norm  Inlet 
  Conduit               Length    Dry  Dry   Dry   Crit  Crit  Crit  Crit  Ltd   Ctrl  
  -------------------------------------------------------------------------------------
  C23                     1.00   0.00  0.00  0.00  1.00  0.00  0.00  0.00  0.00  0.00
  C24                     1.00   0.00  0.00  0.00  1.00  0.00  0.00  0.00  0.01  0.00
  C25                     1.00   0.00  0.00  0.00  1.00  0.00  0.00  0.00  0.01  0.00
  C26                     1.00   0.00  0.00  0.00  1.00  0.00  0.00  0.00  0.00  0.00
  C27                     1.00   0.00  0.00  0.00  1.00  0.00  0.00  0.00  0.00  0.00
  C28                     1.00   0.00  0.00  0.00  1.00  0.00  0.00  0.00  0.01  0.00
  C29                     1.00   0.00  0.00  0.00  1.00  0.00  0.00  0.00  0.00  0.00
  C30                     1.00   0.00  0.00  0.00  1.00  0.00  0.00  0.00  0.00  0.00
  C31                     1.00   0.00  0.00  0.00  1.00  0.00  0.00  0.00  0.00  0.00
  C32                     1.00   0.00  0.00  0.00  1.00  0.00  0.00  0.00  0.00  0.00
  C33                     1.00   0.00  0.00  0.00  1.00  0.00  0.00  0.00  0.01  0.00
  C34                     1.00   0.00  0.00  0.00  1.00  0.00  0.00  0.00  0.00  0.00
  C35                     1.00   0.00  0.00  0.00  1.00  0.00  0.00  0.00  0.00  0.00
  C36                     1.00   0.00  0.00  0.00  1.00  0.00  0.00  0.00  0.00  0.00
  C37                     1.00   0.00  0.00  0.00  1.00  0.00  0.00  0.00  0.00  0.00
  C38                     1.00   0.00  0.00  0.00  1.00  0.00  0.00  0.00  0.00  0.00
  C39                     1.00   0.00  0.00  0.00  1.00  0.00  0.00  0.00  0.00  0.00
  C40                     1.00   0.00  0.00  0.00  1.00  0.00  0.00  0.00  0.00  0.00
  C41                     1.00   0.00  0.00  0.00  1.00  0.00  0.00  0.00  0.00  0.00
  C43                     1.00   0.00  0.00  0.00  1.00  0.00  0.00  0.00  0.00  0.00
  C44                     1.00   0.00  0.00  0.00  1.00  0.00  0.00  0.00  0.00  0.00
  C45                     1.00   0.00  0.00  0.00  1.00  0.00  0.00  0.00  0.00  0.00
  C46                     1.00   0.00  0.00  0.00  1.00  0.00  0.00  0.00  0.00  0.00
  C48                     1.00   0.00  0.00  0.00  1.00  0.00  0.00  0.00  0.00  0.00
  C42                     1.00   0.00  0.00  0.00  1.00  0.00  0.00  0.00  0.00  0.00
  C50                     1.00   0.00  0.00  0.00  1.00  0.00  0.00  0.00  0.00  0.00
  C49                     1.00   0.00  0.00  0.00  1.00  0.00  0.00  0.00  0.00  0.00
  C01                     1.00   0.00  0.00  0.00  1.00  0.00  0.00  0.00  0.00  0.00
  C02                     1.00   0.00  0.00  0.00  1.00  0.00  0.00  0.00  0.00  0.00
  C03                     1.00   0.00  0.00  0.00  1.00  0.00  0.00  0.00  0.00  0.00
  C04                     1.00   0.00  0.00  0.00  1.00  0.00  0.00  0.00  0.00  0.00
  C05                     1.00   0.00  0.00  0.00  1.00  0.00  0.00  0.00  0.01  0.00
  C06                     1.00   0.00  0.00  0.00  1.00  0.00  0.00  0.00  0.00  0.00
  C07                     1.00   0.00  0.00  0.00  1.00  0.00  0.00  0.00  0.00  0.00
  C08                     1.00   0.00  0.00  0.00  1.00  0.00  0.00  0.00  0.00  0.00
  C09                     1.00   0.00  0.00  0.00  1.00  0.00  0.00  0.00  0.00  0.00
  C10                     1.00   0.00  0.00  0.00  1.00  0.00  0.00  0.00  0.00  0.00
  C11                     1.00   0.00  0.00  0.00  1.00  0.00  0.00  0.00  0.00  0.00
  C12                     1.00   0.00  0.00  0.00  1.00  0.00  0.00  0.00  0.00  0.00
  C13                     1.00   0.00  0.00  0.00  1.00  0.00  0.00  0.00  0.01  0.00
  C14                     1.00   0.00  0.00  0.00  1.00  0.00  0.00  0.00  0.01  0.00
  C15                     1.00   0.00  0.00  0.00  1.00  0.00  0.00  0.00  0.00  0.00
  C16                     1.00   0.00  0.00  0.00  1.00  0.00  0.00  0.00  0.00  0.00
  C17                     1.00   0.00  0.00  0.00  1.00  0.00  0.00  0.00  0.00  0.00
  C18                     1.00   0.00  0.00  0.00  1.00  0.00  0.00  0.00  0.00  0.00
  C19                     1.00   0.00  0.00  0.00  1.00  0.00  0.00  0.00  0.00  0.00
  C20                     1.00   0.00  0.00  0.00  1.00  0.00  0.00  0.00  0.00  0.00
  C21                     1.00   0.00  0.00  0.00  1.00  0.00  0.00  0.00  0.00  0.00
  C22                     1.00   0.00  0.00  0.00  1.00  0.00  0.00  0.00  0.00  0.00
  C47                     1.00   0.00  0.00  0.00  1.00  0.00  0.00  0.00  0.00  0.00
  Cout                    1.00   0.00  0.00  0.00  1.00  0.00  0.00  0.00  0.00  0.00
  
  
  *************************
  Conduit Surcharge Summary
  *************************
  
  ----------------------------------------------------------------------------
                                                           Hours        Hours 
                         --------- Hours Full --------   Above Full   Capacity
  Conduit                Both Ends  Upstream  Dnstream   Normal Flow   Limited
  ----------------------------------------------------------------------------
  C23                         0.66      0.66      0.66      0.67         0.08
  C24                         0.66      0.66      0.67      0.65         0.08
  C25                         0.66      0.66      0.67      0.67         0.01
  C26                         0.67      0.67      0.67      0.67         0.09
  C27                         0.66      0.67      0.66      0.67         0.08
  C28                         0.66      0.66      0.67      0.22         0.01
  C29                         0.67      0.67      0.67      0.67         0.08
  C30                         0.67      0.67      0.67      0.67         0.01
  C31                         0.66      0.67      0.66      0.67         0.01
  C32                         0.66      0.67      0.66      0.41         0.08
  C33                         0.66      0.66      0.67      0.67         0.01
  C34                         0.66      0.67      0.66      0.67         0.09
  C35                         0.66      0.66      0.67      0.58         0.08
  C36                         0.67      0.67      0.67      0.67         0.09
  C37                         0.67      0.67      0.67      0.38         0.01
  C38                         0.67      0.67      0.67      0.67         0.01
  C39                         0.66      0.67      0.66      0.65         0.08
  C40                         0.67      0.67      0.67      0.67         0.08
  C41                         0.67      0.67      0.67      0.67         0.01
  C43                         0.67      0.67      0.67      0.67         0.09
  C44                         0.66      0.67      0.66      0.67         0.09
  C45                         0.66      0.66      0.67      0.58         0.01
  C46                         0.67      0.67      0.67      0.66         0.01
  C48                         0.67      0.67      0.67      0.67         0.01
  C42                         0.66      0.66      0.67      0.67         0.01
  C50                         0.66      0.67      0.66      0.66         0.09
  C49                         0.66      0.67      0.66      0.09         0.01
  C01                         0.67      0.67      0.67      0.67         0.01
  C02                         0.67      0.67      0.67      0.67         0.08
  C03                         0.67      0.67      0.67      0.67         0.01
  C04                         0.66      0.67      0.66      0.67         0.09
  C05                         0.66      0.66      0.67      0.67         0.08
  C06                         0.67      0.67      0.67      0.67         0.01
  C07                         0.66      0.67      0.66      0.67         0.09
  C08                         0.66      0.67      0.66      0.58         0.09
  C09                         0.66      0.67      0.66      0.67         0.01
  C10                         0.66      0.66      0.66      0.67         0.09
  C11                         0.67      0.67      0.67      0.44         0.09
  C12                         0.66      0.67      0.66      0.67         0.09
  C13                         0.66      0.66      0.67      0.67         0.16
  C14                         0.66      0.66      0.66      0.67         0.09
  C15                         0.66      0.66      0.67      0.59         0.07
  C16                         0.67      0.67      0.67      0.67         0.01
  C17                         0.66      0.66      0.67      0.58         0.01
  C18                         0.67      0.67      0.67      0.67         0.01
  C19                         0.67      0.67      0.67      0.67         0.08
  C20                         0.67      0.67      0.67      0.67         0.01
  C21                         0.67      0.67      0.67      0.67         0.01
  C22                         0.67      0.67      0.67      0.67         0.01
  C47                         0.66      0.66      0.67      0.67         0.01
  Cout                        0.01      0.67      0.01      0.67         0.01
  
  
  ***************
  Pumping Summary
  ***************
  
  ---------------------------------------------------------------------------------------------------------
                                                  Min       Avg       Max     Total     Power    % Time Off
                        Percent   Number of      Flow      Flow      Flow    Volume     Usage    Pump Curve
  Pump                 Utilized   Start-Ups       CMS       CMS       CMS  10^6 ltr     Kw-hr    Low   High
  ---------------------------------------------------------------------------------------------------------
  P1                       0.00           0      0.00      0.00      0.00     0.000      0.00    0.0    0.0
  

  Analysis begun on:  Thu Nov 28 15:16:04 2024
  Analysis ended on:  Thu Nov 28 15:16:04 2024
  Total elapsed time: < 1 sec