
  EPA STORM WATER MANAGEMENT MODEL - VERSION 5.2 (Build 5.2.4)
  PYSWMM TOOLKIT API - VERSION v1.0 (2023-11-27)
  ------------------------------------------------------------

  WARNING 04: minimum elevation drop used for Conduit C23
  WARNING 04: minimum elevation drop used for Conduit C24
  WARNING 04: minimum elevation drop used for Conduit C25
  WARNING 04: minimum elevation drop used for Conduit C26
  WARNING 04: minimum elevation drop used for Conduit C27
  WARNING 04: minimum elevation drop used for Conduit C28
  WARNING 04: minimum elevation drop used for Conduit C29
  WARNING 04: minimum elevation drop used for Conduit C30
  WARNING 04: minimum elevation drop used for Conduit C31
  WARNING 04: minimum elevation drop used for Conduit C32
  WARNING 04: minimum elevation drop used for Conduit C33
  WARNING 04: minimum elevation drop used for Conduit C34
  WARNING 04: minimum elevation drop used for Conduit C35
  WARNING 04: minimum elevation drop used for Conduit C36
  WARNING 04: minimum elevation drop used for Conduit C37
  WARNING 04: minimum elevation drop used for Conduit C38
  WARNING 04: minimum elevation drop used for Conduit C39
  WARNING 04: minimum elevation drop used for Conduit C40
  WARNING 04: minimum elevation drop used for Conduit C41
  WARNING 04: minimum elevation drop used for Conduit C43
  WARNING 04: minimum elevation drop used for Conduit C44
  WARNING 04: minimum elevation drop used for Conduit C45
  WARNING 04: minimum elevation drop used for Conduit C46
  WARNING 04: minimum elevation drop used for Conduit C48
  WARNING 04: minimum elevation drop used for Conduit C42
  WARNING 04: minimum elevation drop used for Conduit C50
  WARNING 04: minimum elevation drop used for Conduit C49
  WARNING 04: minimum elevation drop used for Conduit C01
  WARNING 04: minimum elevation drop used for Conduit C02
  WARNING 04: minimum elevation drop used for Conduit C03
  WARNING 04: minimum elevation drop used for Conduit C04
  WARNING 04: minimum elevation drop used for Conduit C05
  WARNING 04: minimum elevation drop used for Conduit C06
  WARNING 04: minimum elevation drop used for Conduit C07
  WARNING 04: minimum elevation drop used for Conduit C08
  WARNING 04: minimum elevation drop used for Conduit C09
  WARNING 04: minimum elevation drop used for Conduit C10
  WARNING 04: minimum elevation drop used for Conduit C11
  WARNING 04: minimum elevation drop used for Conduit C12
  WARNING 04: minimum elevation drop used for Conduit C13
  WARNING 04: minimum elevation drop used for Conduit C14
  WARNING 04: minimum elevation drop used for Conduit C15
  WARNING 04: minimum elevation drop used for Conduit C16
  WARNING 04: minimum elevation drop used for Conduit C17
  WARNING 04: minimum elevation drop used for Conduit C18
  WARNING 04: minimum elevation drop used for Conduit C19
  WARNING 04: minimum elevation drop used for Conduit C20
  WARNING 04: minimum elevation drop used for Conduit C21
  WARNING 04: minimum elevation drop used for Conduit C22
  WARNING 04: minimum elevation drop used for Conduit C47
  WARNING 04: minimum elevation drop used for Conduit Cout
  
  ****************
  Analysis Options
  ****************
  Flow Units ............... CMS
  Process Models:
    Rainfall/Runoff ........ YES
    RDII ................... NO
    Snowmelt ............... NO
    Groundwater ............ NO
    Flow Routing ........... YES
    Ponding Allowed ........ NO
    Water Quality .......... NO
  Infiltration Method ...... HORTON
  Flow Routing Method ...... DYNWAVE
  Surcharge Method ......... EXTRAN
  Starting Date ............ 12/25/2022 13:00:00
  Ending Date .............. 12/25/2022 13:40:00
  Antecedent Dry Days ...... 0.0
  Report Time Step ......... 00:10:00
  Wet Time Step ............ 00:05:00
  Dry Time Step ............ 01:00:00
  Routing Time Step ........ 300.00 sec
  Variable Time Step ....... YES
  Maximum Trials ........... 8
  Number of Threads ........ 1
  Head Tolerance ........... 0.001524 m
  
  
  *********************
  Rainfall File Summary
  *********************
  Station    First        Last         Recording   Periods    Periods    Periods
  ID         Date         Date         Frequency  w/Precip    Missing    Malfunc.
  -------------------------------------------------------------------------------
  939        12/25/2022   12/25/2022      10 min         5          0          0

  
  
  **************************        Volume         Depth
  Runoff Quantity Continuity     hectare-m            mm
  **************************     ---------       -------
  Total Precipitation ......        80.007       800.100
  Evaporation Loss .........         0.000         0.000
  Infiltration Loss ........         0.000         0.000
  Surface Runoff ...........        75.098       751.007
  Final Storage ............         6.754        67.542
  Continuity Error (%) .....        -2.306
  
  
  **************************        Volume        Volume
  Flow Routing Continuity        hectare-m      10^6 ltr
  **************************     ---------     ---------
  Dry Weather Inflow .......         0.000         0.000
  Wet Weather Inflow .......        69.794       697.949
  Groundwater Inflow .......         0.000         0.000
  RDII Inflow ..............         0.000         0.000
  External Inflow ..........         0.000         0.000
  External Outflow .........         1.664        16.644
  Flooding Loss ............        63.206       632.068
  Evaporation Loss .........         0.000         0.000
  Exfiltration Loss ........         0.000         0.000
  Initial Stored Volume ....         0.046         0.463
  Final Stored Volume ......         1.883        18.831
  Continuity Error (%) .....         4.420
  
  
  *************************
  Highest Continuity Errors
  *************************
  Node J30 (19.69%)
  Node J3 (19.48%)
  Node J17 (14.13%)
  Node J18 (14.08%)
  Node J24 (9.16%)
  
  
  ***************************
  Time-Step Critical Elements
  ***************************
  Link Cout (98.69%)
  
  
  ********************************
  Highest Flow Instability Indexes
  ********************************
  Link C24 (2)
  Link C31 (2)
  Link C33 (2)
  Link C34 (2)
  Link C46 (2)
  
  
  *********************************
  Most Frequent Nonconverging Nodes
  *********************************
  Convergence obtained at all time steps.
  
  
  *************************
  Routing Time Step Summary
  *************************
  Minimum Time Step           :     4.82 sec
  Average Time Step           :    15.69 sec
  Maximum Time Step           :   300.00 sec
  % of Time in Steady State   :     0.00
  Average Iterations per Step :     2.02
  % of Steps Not Converging   :     0.00
  Time Step Frequencies       :
     300.000 - 83.462 sec      :     0.66 %
     83.462 - 23.220 sec      :     0.00 %
     23.220 -  6.460 sec      :    98.68 %
      6.460 -  1.797 sec      :     0.66 %
      1.797 -  0.500 sec      :     0.00 %
  
  
  ***************************
  Subcatchment Runoff Summary
  ***************************
  
  ------------------------------------------------------------------------------------------------------------------------------
                            Total      Total      Total      Total     Imperv       Perv      Total       Total     Peak  Runoff
                           Precip      Runon       Evap      Infil     Runoff     Runoff     Runoff      Runoff   Runoff   Coeff
  Subcatchment                 mm         mm         mm         mm         mm         mm         mm    10^6 ltr      CMS
  ------------------------------------------------------------------------------------------------------------------------------
  S1                       800.10       0.00       0.00       0.00       7.92     792.18     800.10      201.83   192.24   1.000
  S2                       800.10       0.00       0.00       0.00       7.28     795.40     802.68        6.24     5.92   1.003
  S3                       800.10       0.00       0.00       0.00       7.28     792.82     800.10        1.66     1.58   1.000
  S4                       800.10       0.00       0.00       0.00       7.28     792.82     800.10        1.64     1.56   1.000
  S5                       800.10       0.00       0.00       0.00       7.28     792.82     800.10        2.39     2.28   1.000
  S6                       800.10       0.00       0.00       0.00       7.28     792.82     800.10        6.59     6.28   1.000
  S7                       800.10       0.00       0.00       0.00       7.28     792.82     800.10        1.24     1.18   1.000
  S8                       800.10       0.00       0.00       0.00       7.28     792.82     800.10        3.90     3.71   1.000
  S9                       800.10       0.00       0.00       0.00       7.28     792.82     800.10        4.82     4.59   1.000
  S10                      800.10       0.00       0.00       0.00       0.00     792.82     792.82        1.12     1.06   0.991
  S11                      800.10       0.00       0.00       0.00       7.28     764.42     771.70       11.29    10.95   0.965
  S12                      800.10       0.00       0.00       0.00       7.28     792.82     800.10        6.94     6.61   1.000
  S13                      800.10       0.00       0.00       0.00       0.00     792.82     792.82        6.69     6.37   0.991
  S14                      800.10       0.00       0.00       0.00       6.72     793.38     800.10        6.42     6.12   1.000
  S15                      800.10       0.00       0.00       0.00       6.72     793.38     800.10        6.00     5.72   1.000
  S16                      800.10       0.00       0.00       0.00       6.16     795.36     801.52       14.15    13.45   1.002
  S17                      800.10       0.00       0.00       0.00       6.16     700.80     706.96       24.07    22.71   0.884
  S18                      800.10       0.00       0.00       0.00       6.16     793.98     800.14        1.03     0.98   1.000
  S19                      800.10       0.00       0.00       0.00       6.16       0.00       6.16        0.01     0.01   0.008
  S20                      800.10       0.00       0.00       0.00       6.16     793.96     800.12        0.82     0.78   1.000
  S21                      800.10       0.00       0.00       0.00       6.16     784.22     790.38       13.10    12.58   0.988
  S22                      800.10       0.00       0.00       0.00       6.16     793.92     800.08        0.26     0.25   1.000
  S23                      800.10       0.00       0.00       0.00       6.16     793.94     800.10        0.31     0.30   1.000
  S24                      800.10       0.00       0.00       0.00       6.16     793.94     800.10        0.39     0.37   1.000
  S25                      800.10       0.00       0.00       0.00       6.16     793.94     800.10        0.47     0.45   1.000
  S26                      800.10       0.00       0.00       0.00       6.16     793.94     800.10        0.55     0.53   1.000
  S27                      800.10       0.00       0.00       0.00       6.16     794.88     801.04        6.66     6.33   1.001
  S28                      800.10       0.00       0.00       0.00       6.16     786.57     792.73        7.04     6.75   0.991
  S29                      800.10       0.00       0.00       0.00       6.16     793.93     800.09        0.74     0.70   1.000
  S30                      800.10       0.00       0.00       0.00       6.16     672.21     678.37       43.21    39.23   0.848
  S31                      800.10       0.00       0.00       0.00       6.40     793.70     800.10       10.84    10.33   1.000
  S32                      800.10       0.00       0.00       0.00       6.40     793.70     800.10        3.34     3.18   1.000
  S33                      800.10       0.00       0.00       0.00       7.52     792.58     800.10        2.49     2.37   1.000
  S34                      800.10       0.00       0.00       0.00       7.52     792.58     800.10        2.63     2.51   1.000
  S35                      800.10       0.00       0.00       0.00       7.28     792.82     800.10        3.22     3.06   1.000
  S36                      800.10       0.00       0.00       0.00       7.28     792.82     800.10        1.32     1.26   1.000
  S37                      800.10       0.00       0.00       0.00       7.28     792.82     800.10        2.88     2.74   1.000
  S38                      800.10       0.00       0.00       0.00       7.28     792.82     800.10        0.13     0.12   1.000
  S39                      800.10       0.00       0.00       0.00       7.28     792.82     800.10        3.28     3.12   1.000
  S40                      800.10       0.00       0.00       0.00       7.28     792.82     800.10        1.13     1.07   1.000
  S41                      800.10       0.00       0.00       0.00       7.28     792.82     800.10        1.82     1.73   1.000
  S42                      800.10       0.00       0.00       0.00       7.28     792.82     800.10        2.53     2.41   1.000
  S43                      800.10       0.00       0.00       0.00       7.28     792.82     800.10        5.76     5.49   1.000
  S44                      800.10       0.00       0.00       0.00       7.28     792.82     800.10        4.18     3.98   1.000
  S45                      800.10       0.00       0.00       0.00       7.28     792.82     800.10        0.42     0.40   1.000
  S46                      800.10       0.00       0.00       0.00       7.28     792.82     800.10        3.87     3.69   1.000
  S47                      800.10       0.00       0.00       0.00       7.28     792.82     800.10        7.83     7.45   1.000
  S48                      800.10       0.00       0.00       0.00       7.28     792.82     800.10        9.04     8.61   1.000
  S49                      800.10       0.00       0.00       0.00       7.28     792.82     800.10        5.50     5.24   1.000
  S50                      800.10       0.00       0.00       0.00       7.28     792.82     800.10        4.53     4.31   1.000
  S51                      800.10       0.00       0.00       0.00       7.28     792.82     800.10        2.67     2.55   1.000
  S52                      800.10       0.00       0.00       0.00       7.28     792.82     800.10        7.08     6.74   1.000
  S53                      800.10       0.00       0.00       0.00       7.28     786.38     793.66        9.67     9.26   0.992
  S54                      800.10       0.00       0.00       0.00       7.28     795.91     803.19        3.67     3.48   1.004
  S55                      800.10       0.00       0.00       0.00       7.28     792.82     800.10        0.30     0.29   1.000
  S56                      800.10       0.00       0.00       0.00       7.28     792.79     800.08        0.30     0.29   1.000
  S57                      800.10       0.00       0.00       0.00       7.28     792.82     800.10        4.14     3.94   1.000
  S58                      800.10       0.00       0.00       0.00       7.28     792.82     800.10        5.31     5.06   1.000
  S59                      800.10       0.00       0.00       0.00       7.28     792.82     800.10        5.16     4.92   1.000
  S60                      800.10       0.00       0.00       0.00       6.16     796.13     802.29        3.15     2.99   1.003
  S61                      800.10       0.00       0.00       0.00       6.16       0.00       6.16        0.02     0.02   0.008
  S62                      800.10       0.00       0.00       0.00       6.16     652.66     658.82       35.31    31.01   0.823
  S63                      800.10       0.00       0.00       0.00       6.16     793.94     800.10        7.52     7.16   1.000
  S64                      800.10       0.00       0.00       0.00       6.16     793.94     800.10       20.36    19.40   1.000
  S65                      800.10       0.00       0.00       0.00       6.16     793.94     800.10        3.25     3.09   1.000
  S66                      800.10       0.00       0.00       0.00       6.16     793.94     800.10        5.24     4.99   1.000
  S67                      800.10       0.00       0.00       0.00       6.16     793.94     800.10        9.79     9.33   1.000
  S68                      800.10       0.00       0.00       0.00       6.16     793.94     800.10       11.48    10.94   1.000
  S69                      800.10       0.00       0.00       0.00       6.16       0.00       6.16        0.15     0.15   0.008
  S70                      800.10       0.00       0.00       0.00       6.16     783.11     789.27       20.66    19.85   0.986
  S71                      800.10       0.00       0.00       0.00       7.28     792.82     800.10       11.77    11.21   1.000
  S72                      800.10       0.00       0.00       0.00       6.16     796.31     802.47        3.98     3.78   1.003
  S73                      800.10       0.00       0.00       0.00       6.16     793.94     800.10       16.77    15.97   1.000
  S74                      800.10       0.00       0.00       0.00       6.16       0.00       6.16        0.04     0.04   0.008
  S75                      800.10       0.00       0.00       0.00       6.16     793.94     800.10        0.54     0.51   1.000
  S76                      800.10       0.00       0.00       0.00       6.16     793.94     800.10       10.57    10.07   1.000
  S77                      800.10       0.00       0.00       0.00       6.16     793.94     800.10        8.55     8.15   1.000
  S78                      800.10       0.00       0.00       0.00       6.16     793.94     800.10        6.20     5.91   1.000
  S79                      800.10       0.00       0.00       0.00       7.28     792.82     800.10        5.43     5.17   1.000
  S80                      800.10       0.00       0.00       0.00       6.16     794.78     800.94        2.21     2.10   1.001
  S81                      800.10       0.00       0.00       0.00       6.16     793.94     800.10        9.05     8.62   1.000
  S82                      800.10       0.00       0.00       0.00       6.16     793.94     800.10        8.83     8.41   1.000
  S83                      800.10       0.00       0.00       0.00       6.16     793.94     800.10        5.68     5.41   1.000
  S84                      800.10       0.00       0.00       0.00       7.28     792.82     800.10        3.71     3.54   1.000
  S85                      800.10       0.00       0.00       0.00       7.28     790.76     798.04        9.86     9.41   0.997
  S86                      800.10       0.00       0.00       0.00       0.00     792.82     792.82        9.17     8.74   0.991
  S87                      800.10       0.00       0.00       0.00       7.28     792.82     800.10        9.94     9.47   1.000
  S88                      800.10       0.00       0.00       0.00       7.28     792.82     800.10        1.79     1.71   1.000
  S89                      800.10       0.00       0.00       0.00       7.28     792.82     800.10        8.09     7.70   1.000
  S90                      800.10       0.00       0.00       0.00       0.00     792.82     792.82        3.89     3.71   0.991
  S91                      800.10       0.00       0.00       0.00       7.28     792.82     800.10        1.32     1.26   1.000
  
  
  ******************
  Node Depth Summary
  ******************
  
  ---------------------------------------------------------------------------------
                                 Average  Maximum  Maximum  Time of Max    Reported
                                   Depth    Depth      HGL   Occurrence   Max Depth
  Node                 Type       Meters   Meters   Meters  days hr:min      Meters
  ---------------------------------------------------------------------------------
  J7                   JUNCTION     2.48     2.50     2.50     0  00:05        2.50
  J13                  JUNCTION     2.48     2.50     2.50     0  00:05        2.50
  J19                  JUNCTION     2.48     2.50     2.50     0  00:05        2.50
  J25                  JUNCTION     2.48     2.50     2.50     0  00:05        2.50
  J1                   JUNCTION     2.48     2.50     2.50     0  00:05        2.50
  J2                   JUNCTION     2.48     2.50     2.50     0  00:05        2.50
  J3                   JUNCTION     2.48     2.50     2.50     0  00:05        2.50
  J4                   JUNCTION     2.48     2.50     2.50     0  00:05        2.50
  J5                   JUNCTION     2.48     2.50     2.50     0  00:05        2.50
  J6                   JUNCTION     2.48     2.50     2.50     0  00:05        2.50
  J8                   JUNCTION     2.48     2.50     2.50     0  00:05        2.50
  J9                   JUNCTION     2.48     2.50     2.50     0  00:05        2.50
  J10                  JUNCTION     2.48     2.50     2.50     0  00:05        2.50
  J11                  JUNCTION     2.48     2.50     2.50     0  00:05        2.50
  J12                  JUNCTION     2.48     2.50     2.50     0  00:05        2.50
  J14                  JUNCTION     2.48     2.50     2.50     0  00:05        2.50
  J15                  JUNCTION     2.48     2.50     2.50     0  00:05        2.50
  J16                  JUNCTION     2.48     2.50     2.50     0  00:05        2.50
  J17                  JUNCTION     2.48     2.50     2.50     0  00:05        2.50
  J18                  JUNCTION     2.48     2.50     2.50     0  00:05        2.50
  J20                  JUNCTION     2.48     2.50     2.50     0  00:05        2.50
  J21                  JUNCTION     2.48     2.50     2.50     0  00:05        2.50
  J22                  JUNCTION     2.48     2.50     2.50     0  00:05        2.50
  J23                  JUNCTION     2.48     2.50     2.50     0  00:05        2.50
  J24                  JUNCTION     2.48     2.50     2.50     0  00:05        2.50
  J26                  JUNCTION     2.48     2.50     2.50     0  00:05        2.50
  J27                  JUNCTION     2.48     2.50     2.50     0  00:05        2.50
  J29                  JUNCTION     2.48     2.50     2.50     0  00:05        2.50
  J30                  JUNCTION     2.48     2.50     2.50     0  00:05        2.50
  J31                  JUNCTION     2.48     2.50     2.50     0  00:05        2.50
  J33                  JUNCTION     2.48     2.50     2.50     0  00:05        2.50
  J32                  JUNCTION     2.48     2.50     2.50     0  00:05        2.50
  J28                  JUNCTION     2.48     2.50     2.50     0  00:05        2.50
  OF                   OUTFALL      1.36     1.42     1.42     0  00:05        1.37
  
  
  *******************
  Node Inflow Summary
  *******************
  
  -------------------------------------------------------------------------------------------------
                                  Maximum  Maximum                  Lateral       Total        Flow
                                  Lateral    Total  Time of Max      Inflow      Inflow     Balance
                                   Inflow   Inflow   Occurrence      Volume      Volume       Error
  Node                 Type           CMS      CMS  days hr:min    10^6 ltr    10^6 ltr     Percent
  -------------------------------------------------------------------------------------------------
  J7                   JUNCTION    43.592   43.592     0  00:10        44.8        44.8       4.597
  J13                  JUNCTION     4.347    4.347     0  00:10        4.26        4.26       8.128
  J19                  JUNCTION   206.023  206.023     0  00:10         201         201       7.935
  J25                  JUNCTION    22.713   23.268     0  00:10        22.3        23.1       4.021
  J1                   JUNCTION    17.295   17.295     0  00:10        16.9        16.9       8.319
  J2                   JUNCTION    12.994   12.994     0  00:05        12.7        12.7       5.829
  J3                   JUNCTION     0.579   22.344     0  00:05       0.566        8.22      24.195
  J4                   JUNCTION    37.624   38.825     0  00:05        36.8        38.1       5.562
  J5                   JUNCTION    31.108   31.108     0  00:10        30.4        30.4       5.049
  J6                   JUNCTION    13.611   13.611     0  00:10        13.3        13.3       8.309
  J8                   JUNCTION    20.942   20.942     0  00:05        20.5        20.5       8.319
  J9                   JUNCTION     9.407    9.407     0  00:10        9.17        9.17       6.335
  J10                  JUNCTION    14.053   14.053     0  00:10        13.7        13.7       7.243
  J11                  JUNCTION    15.097   15.930     0  00:05        14.7        15.8       5.369
  J12                  JUNCTION    15.973   16.148     0  00:05        15.6        15.9       5.490
  J14                  JUNCTION    13.535   13.535     0  00:05        13.2        13.2       8.319
  J15                  JUNCTION    19.346   19.346     0  00:10        18.8        18.8       7.638
  J16                  JUNCTION    11.210   13.505     0  00:05          11        13.2       6.280
  J17                  JUNCTION     0.146   11.589     0  00:05       0.142        5.89      16.454
  J18                  JUNCTION     0.511    8.494     0  00:05       0.499        4.15      16.382
  J20                  JUNCTION    37.664   37.664     0  00:10        36.6        36.6       7.909
  J21                  JUNCTION    12.493   12.493     0  00:10        12.2        12.2       8.319
  J22                  JUNCTION    25.561   25.561     0  00:10        24.8        24.8       7.201
  J23                  JUNCTION    13.453   13.917     0  00:10        13.2        13.9       5.852
  J24                  JUNCTION     1.774    4.892     0  00:05        1.73        3.91      10.084
  J26                  JUNCTION    11.035   11.035     0  00:10        10.8        10.8       8.319
  J27                  JUNCTION     9.678   12.969     0  00:05        9.47        11.8       5.513
  J29                  JUNCTION    15.874   16.888     0  00:05        15.5        16.7       6.070
  J30                  JUNCTION     0.000   19.859     0  00:05           0        7.22      24.513
  J31                  JUNCTION    39.231   39.426     0  00:10        39.9        40.3       3.326
  J33                  JUNCTION    15.619   15.619     0  00:10        15.3        15.3       8.299
  J32                  JUNCTION     7.125    7.125     0  00:10        6.96        6.96       7.698
  J28                  JUNCTION    11.393   14.798     0  00:05        11.1        13.5       5.959
  OF                   OUTFALL      0.000    7.984     0  00:05           0        16.6       0.000
  
  
  **********************
  Node Surcharge Summary
  **********************
  
  Surcharging occurs when water rises above the top of the highest conduit.
  ---------------------------------------------------------------------
                                               Max. Height   Min. Depth
                                   Hours       Above Crown    Below Rim
  Node                 Type      Surcharged         Meters       Meters
  ---------------------------------------------------------------------
  J7                   JUNCTION        0.67          0.850        0.000
  J13                  JUNCTION        0.67          0.850        0.000
  J19                  JUNCTION        0.67          0.850        0.000
  J25                  JUNCTION        0.67          0.850        0.000
  J1                   JUNCTION        0.67          0.850        0.000
  J2                   JUNCTION        0.67          0.850        0.000
  J3                   JUNCTION        0.67          0.850        0.000
  J4                   JUNCTION        0.67          0.850        0.000
  J5                   JUNCTION        0.67          0.850        0.000
  J6                   JUNCTION        0.67          0.850        0.000
  J8                   JUNCTION        0.67          0.850        0.000
  J9                   JUNCTION        0.67          0.850        0.000
  J10                  JUNCTION        0.67          0.850        0.000
  J11                  JUNCTION        0.67          0.850        0.000
  J12                  JUNCTION        0.67          0.850        0.000
  J14                  JUNCTION        0.67          0.850        0.000
  J15                  JUNCTION        0.67          0.850        0.000
  J16                  JUNCTION        0.67          0.850        0.000
  J17                  JUNCTION        0.67          0.850        0.000
  J18                  JUNCTION        0.67          0.850        0.000
  J20                  JUNCTION        0.67          0.850        0.000
  J21                  JUNCTION        0.67          0.850        0.000
  J22                  JUNCTION        0.67          0.850        0.000
  J23                  JUNCTION        0.67          0.850        0.000
  J24                  JUNCTION        0.67          0.850        0.000
  J26                  JUNCTION        0.67          0.850        0.000
  J27                  JUNCTION        0.67          0.850        0.000
  J29                  JUNCTION        0.67          0.850        0.000
  J30                  JUNCTION        0.67          0.850        0.000
  J31                  JUNCTION        0.67          0.850        0.000
  J33                  JUNCTION        0.67          0.850        0.000
  J32                  JUNCTION        0.67          0.850        0.000
  J28                  JUNCTION        0.67          0.850        0.000
  
  
  *********************
  Node Flooding Summary
  *********************
  
  Flooding refers to all water that overflows a node, whether it ponds or not.
  --------------------------------------------------------------------------
                                                             Total   Maximum
                                 Maximum   Time of Max       Flood    Ponded
                        Hours       Rate    Occurrence      Volume     Depth
  Node                 Flooded       CMS   days hr:min    10^6 ltr    Meters
  --------------------------------------------------------------------------
  J7                      0.67    42.628      0  00:10      43.400     0.000
  J13                     0.67     4.346      0  00:10       4.258     0.000
  J19                     0.67   198.667      0  00:10     184.568     0.000
  J25                     0.67    21.807      0  00:10      20.851     0.000
  J1                      0.67    17.295      0  00:10      16.895     0.000
  J2                      0.67    11.436      0  00:10      10.194     0.000
  J3                      0.67    20.141      0  00:05       8.221     0.000
  J4                      0.67    36.853      0  00:10      33.917     0.000
  J5                      0.67    28.977      0  00:10      25.531     0.000
  J6                      0.67    13.611      0  00:10      13.306     0.000
  J8                      0.67    20.942      0  00:05      20.457     0.000
  J9                      0.67     8.662      0  00:10       7.998     0.000
  J10                     0.67    12.859      0  00:10      11.806     0.000
  J11                     0.67    14.505      0  00:10      13.359     0.000
  J12                     0.67    15.054      0  00:10      13.712     0.000
  J14                     0.67    13.535      0  00:05      13.221     0.000
  J15                     0.67    18.829      0  00:10      18.040     0.000
  J16                     0.67    11.721      0  00:10      11.597     0.000
  J17                     0.67    10.963      0  00:05       5.892     0.000
  J18                     0.67     7.648      0  00:05       3.674     0.000
  J20                     0.67    37.648      0  00:10      36.569     0.000
  J21                     0.67    12.493      0  00:10      12.204     0.000
  J22                     0.67    24.613      0  00:10      23.299     0.000
  J23                     0.67    12.469      0  00:10      11.537     0.000
  J24                     0.67     4.802      0  00:05       3.908     0.000
  J26                     0.67    11.035      0  00:10      10.779     0.000
  J27                     0.67    10.066      0  00:10       9.698     0.000
  J29                     0.67    15.049      0  00:10      14.105     0.000
  J30                     0.67    17.952      0  00:05       7.223     0.000
  J31                     0.67    38.194      0  00:10      37.991     0.000
  J33                     0.67    15.619      0  00:10      15.277     0.000
  J32                     0.67     6.761      0  00:10       6.367     0.000
  J28                     0.67    11.833      0  00:10      11.443     0.000
  
  
  ***********************
  Outfall Loading Summary
  ***********************
  
  -----------------------------------------------------------
                         Flow       Avg       Max       Total
                         Freq      Flow      Flow      Volume
  Outfall Node           Pcnt       CMS       CMS    10^6 ltr
  -----------------------------------------------------------
  OF                   100.00     7.312     7.984      16.644
  -----------------------------------------------------------
  System               100.00     7.312     7.984      16.644
  
  
  ********************
  Link Flow Summary
  ********************
  
  -----------------------------------------------------------------------------
                                 Maximum  Time of Max   Maximum    Max/    Max/
                                  |Flow|   Occurrence   |Veloc|    Full    Full
  Link                 Type          CMS  days hr:min     m/sec    Flow   Depth
  -----------------------------------------------------------------------------
  P1                   PUMP        0.000     0  00:00                          
  C23                  CONDUIT     0.000     0  00:00      0.00    0.00    1.00
  C24                  CONDUIT     0.735     0  00:05      0.34    6.36    1.00
  C25                  CONDUIT     0.000     0  00:00      0.00    0.00    1.00
  C26                  CONDUIT     0.463     0  00:05      0.22    3.62    1.00
  C27                  CONDUIT     0.000     0  00:00      0.00    0.00    1.00
  C28                  CONDUIT     1.697     0  00:05      0.79   11.70    1.00
  C29                  CONDUIT     0.000     0  00:00      0.00    0.00    1.00
  C30                  CONDUIT     0.541     0  00:05      0.25    4.76    1.00
  C31                  CONDUIT     0.370     0  00:05      0.17    3.24    1.00
  C32                  CONDUIT     4.772     0  00:05      2.23   30.85    1.00
  C33                  CONDUIT    12.125     0  00:05      5.67   70.94    1.00
  C34                  CONDUIT     0.660     0  00:05      0.31    5.25    1.00
  C35                  CONDUIT     0.000     0  00:05      0.00    0.00    1.00
  C36                  CONDUIT     0.000     0  00:05      0.00    0.00    1.00
  C37                  CONDUIT     1.708     0  00:05      0.80   11.72    1.00
  C38                  CONDUIT     2.120     0  00:05      0.99   14.78    1.00
  C39                  CONDUIT     4.868     0  00:05      2.28   30.85    1.00
  C40                  CONDUIT     0.000     0  00:00      0.00    0.00    1.00
  C41                  CONDUIT     0.000     0  00:00      0.00    0.00    1.00
  C43                  CONDUIT     0.000     0  00:00      0.00    0.00    1.00
  C44                  CONDUIT     0.509     0  00:05      0.24    4.34    1.00
  C45                  CONDUIT    10.912     0  00:05      5.10   93.63    1.00
  C46                  CONDUIT     5.831     0  00:05      2.73   48.32    1.00
  C48                  CONDUIT     0.000     0  00:05      0.00    0.00    1.00
  C42                  CONDUIT     3.116     0  00:05      1.46   24.71    1.00
  C50                  CONDUIT     0.506     0  00:05      0.24    4.88    1.00
  C49                  CONDUIT     1.191     0  00:05      0.56   10.39    1.00
  C01                  CONDUIT     0.000     0  00:00      0.00    0.00    1.00
  C02                  CONDUIT     0.000     0  00:00      0.00    0.00    1.00
  C03                  CONDUIT     0.727     0  00:05      0.34    5.80    1.00
  C04                  CONDUIT     0.980     0  00:05      0.46    7.71    1.00
  C05                  CONDUIT     0.852     0  00:05      0.40    6.79    1.00
  C06                  CONDUIT     0.000     0  00:00      0.00    0.00    1.00
  C07                  CONDUIT     0.000     0  00:00      0.00    0.00    1.00
  C08                  CONDUIT     0.000     0  00:00      0.00    0.00    1.00
  C09                  CONDUIT     0.722     0  00:05      0.34    6.32    1.00
  C10                  CONDUIT     0.838     0  00:05      0.39    6.68    1.00
  C11                  CONDUIT     0.000     0  00:00      0.00    0.00    1.00
  C12                  CONDUIT     2.683     0  00:05      1.25   23.11    1.00
  C13                  CONDUIT     2.616     0  00:05      1.22   22.77    1.00
  C14                  CONDUIT     3.154     0  00:05      1.47   25.06    1.00
  C15                  CONDUIT     0.359     0  00:05      0.17    2.85    1.00
  C16                  CONDUIT     2.265     0  00:05      1.06   19.89    1.00
  C17                  CONDUIT     5.247     0  00:05      2.45   46.31    1.00
  C18                  CONDUIT     0.000     0  00:00      0.00    0.00    1.00
  C19                  CONDUIT     0.000     0  00:00      0.00    0.00    1.00
  C20                  CONDUIT     5.367     0  00:05      2.51   47.78    1.00
  C21                  CONDUIT     0.000     0  00:05      0.00    0.00    1.00
  C22                  CONDUIT     0.175     0  00:05      0.08    1.38    1.00
  C47                  CONDUIT     0.231     0  00:05      0.11    2.38    1.00
  Cout                 CONDUIT     7.984     0  00:05      3.85   63.04    0.93
  
  
  ***************************
  Flow Classification Summary
  ***************************
  
  -------------------------------------------------------------------------------------
                      Adjusted    ---------- Fraction of Time in Flow Class ---------- 
                       /Actual         Up    Down  Sub   Sup   Up    Down  Norm  Inlet 
  Conduit               Length    Dry  Dry   Dry   Crit  Crit  Crit  Crit  Ltd   Ctrl  
  -------------------------------------------------------------------------------------
  C23                     1.00   0.00  0.00  0.00  1.00  0.00  0.00  0.00  0.00  0.00
  C24                     1.00   0.00  0.00  0.00  1.00  0.00  0.00  0.00  0.00  0.00
  C25                     1.00   0.00  0.00  0.00  1.00  0.00  0.00  0.00  0.00  0.00
  C26                     1.00   0.00  0.00  0.00  1.00  0.00  0.00  0.00  0.00  0.00
  C27                     1.00   0.00  0.00  0.00  1.00  0.00  0.00  0.00  0.00  0.00
  C28                     1.00   0.00  0.00  0.00  1.00  0.00  0.00  0.00  0.00  0.00
  C29                     1.00   0.00  0.00  0.00  1.00  0.00  0.00  0.00  0.00  0.00
  C30                     1.00   0.00  0.00  0.00  1.00  0.00  0.00  0.00  0.00  0.00
  C31                     1.00   0.00  0.00  0.00  1.00  0.00  0.00  0.00  0.00  0.00
  C32                     1.00   0.00  0.00  0.00  1.00  0.00  0.00  0.00  0.00  0.00
  C33                     1.00   0.00  0.00  0.00  1.00  0.00  0.00  0.00  0.00  0.00
  C34                     1.00   0.00  0.00  0.00  1.00  0.00  0.00  0.00  0.00  0.00
  C35                     1.00   0.00  0.00  0.00  1.00  0.00  0.00  0.00  0.00  0.00
  C36                     1.00   0.00  0.00  0.00  1.00  0.00  0.00  0.00  0.00  0.00
  C37                     1.00   0.00  0.00  0.00  1.00  0.00  0.00  0.00  0.00  0.00
  C38                     1.00   0.00  0.00  0.00  1.00  0.00  0.00  0.00  0.00  0.00
  C39                     1.00   0.00  0.00  0.00  1.00  0.00  0.00  0.00  0.00  0.00
  C40                     1.00   0.00  0.00  0.00  1.00  0.00  0.00  0.00  0.00  0.00
  C41                     1.00   0.00  0.00  0.00  1.00  0.00  0.00  0.00  0.00  0.00
  C43                     1.00   0.00  0.00  0.00  1.00  0.00  0.00  0.00  0.00  0.00
  C44                     1.00   0.00  0.00  0.00  1.00  0.00  0.00  0.00  0.00  0.00
  C45                     1.00   0.00  0.00  0.00  1.00  0.00  0.00  0.00  0.00  0.00
  C46                     1.00   0.00  0.00  0.00  1.00  0.00  0.00  0.00  0.00  0.00
  C48                     1.00   0.00  0.00  0.00  1.00  0.00  0.00  0.00  0.00  0.00
  C42                     1.00   0.00  0.00  0.00  1.00  0.00  0.00  0.00  0.00  0.00
  C50                     1.00   0.00  0.00  0.00  1.00  0.00  0.00  0.00  0.00  0.00
  C49                     1.00   0.00  0.00  0.00  1.00  0.00  0.00  0.00  0.00  0.00
  C01                     1.00   0.00  0.00  0.00  1.00  0.00  0.00  0.00  0.00  0.00
  C02                     1.00   0.00  0.00  0.00  1.00  0.00  0.00  0.00  0.00  0.00
  C03                     1.00   0.00  0.00  0.00  1.00  0.00  0.00  0.00  0.00  0.00
  C04                     1.00   0.00  0.00  0.00  1.00  0.00  0.00  0.00  0.00  0.00
  C05                     1.00   0.00  0.00  0.00  1.00  0.00  0.00  0.00  0.00  0.00
  C06                     1.00   0.00  0.00  0.00  1.00  0.00  0.00  0.00  0.00  0.00
  C07                     1.00   0.00  0.00  0.00  1.00  0.00  0.00  0.00  0.00  0.00
  C08                     1.00   0.00  0.00  0.00  1.00  0.00  0.00  0.00  0.00  0.00
  C09                     1.00   0.00  0.00  0.00  1.00  0.00  0.00  0.00  0.00  0.00
  C10                     1.00   0.00  0.00  0.00  1.00  0.00  0.00  0.00  0.00  0.00
  C11                     1.00   0.00  0.00  0.00  1.00  0.00  0.00  0.00  0.00  0.00
  C12                     1.00   0.00  0.00  0.00  1.00  0.00  0.00  0.00  0.00  0.00
  C13                     1.00   0.00  0.00  0.00  1.00  0.00  0.00  0.00  0.00  0.00
  C14                     1.00   0.00  0.00  0.00  1.00  0.00  0.00  0.00  0.00  0.00
  C15                     1.00   0.00  0.00  0.00  1.00  0.00  0.00  0.00  0.00  0.00
  C16                     1.00   0.00  0.00  0.00  1.00  0.00  0.00  0.00  0.00  0.00
  C17                     1.00   0.00  0.00  0.00  1.00  0.00  0.00  0.00  0.00  0.00
  C18                     1.00   0.00  0.00  0.00  1.00  0.00  0.00  0.00  0.00  0.00
  C19                     1.00   0.00  0.00  0.00  1.00  0.00  0.00  0.00  0.00  0.00
  C20                     1.00   0.00  0.00  0.00  1.00  0.00  0.00  0.00  0.00  0.00
  C21                     1.00   0.00  0.00  0.00  1.00  0.00  0.00  0.00  0.00  0.00
  C22                     1.00   0.00  0.00  0.00  1.00  0.00  0.00  0.00  0.00  0.00
  C47                     1.00   0.00  0.00  0.00  1.00  0.00  0.00  0.00  0.00  0.00
  Cout                    1.00   0.00  0.00  0.00  1.00  0.00  0.00  0.00  0.00  0.00
  
  
  *************************
  Conduit Surcharge Summary
  *************************
  
  ----------------------------------------------------------------------------
                                                           Hours        Hours 
                         --------- Hours Full --------   Above Full   Capacity
  Conduit                Both Ends  Upstream  Dnstream   Normal Flow   Limited
  ----------------------------------------------------------------------------
  C23                         0.67      0.67      0.67      0.01         0.01
  C24                         0.67      0.67      0.67      0.67         0.01
  C25                         0.67      0.67      0.67      0.01         0.01
  C26                         0.67      0.67      0.67      0.67         0.01
  C27                         0.67      0.67      0.67      0.01         0.01
  C28                         0.67      0.67      0.67      0.67         0.01
  C29                         0.67      0.67      0.67      0.01         0.01
  C30                         0.67      0.67      0.67      0.67         0.01
  C31                         0.67      0.67      0.67      0.67         0.01
  C32                         0.67      0.67      0.67      0.67         0.01
  C33                         0.67      0.67      0.67      0.67         0.01
  C34                         0.67      0.67      0.67      0.67         0.01
  C35                         0.67      0.67      0.67      0.01         0.01
  C36                         0.67      0.67      0.67      0.01         0.01
  C37                         0.67      0.67      0.67      0.67         0.01
  C38                         0.67      0.67      0.67      0.67         0.01
  C39                         0.67      0.67      0.67      0.67         0.01
  C40                         0.67      0.67      0.67      0.01         0.01
  C41                         0.67      0.67      0.67      0.01         0.01
  C43                         0.67      0.67      0.67      0.01         0.01
  C44                         0.67      0.67      0.67      0.67         0.01
  C45                         0.67      0.67      0.67      0.67         0.01
  C46                         0.67      0.67      0.67      0.67         0.01
  C48                         0.67      0.67      0.67      0.01         0.01
  C42                         0.67      0.67      0.67      0.67         0.01
  C50                         0.67      0.67      0.67      0.67         0.01
  C49                         0.67      0.67      0.67      0.67         0.01
  C01                         0.67      0.67      0.67      0.01         0.01
  C02                         0.67      0.67      0.67      0.01         0.01
  C03                         0.67      0.67      0.67      0.67         0.01
  C04                         0.67      0.67      0.67      0.67         0.01
  C05                         0.67      0.67      0.67      0.67         0.01
  C06                         0.67      0.67      0.67      0.01         0.01
  C07                         0.67      0.67      0.67      0.01         0.01
  C08                         0.67      0.67      0.67      0.01         0.01
  C09                         0.67      0.67      0.67      0.67         0.01
  C10                         0.67      0.67      0.67      0.67         0.01
  C11                         0.67      0.67      0.67      0.01         0.01
  C12                         0.67      0.67      0.67      0.67         0.01
  C13                         0.67      0.67      0.67      0.67         0.01
  C14                         0.67      0.67      0.67      0.67         0.01
  C15                         0.67      0.67      0.67      0.65         0.01
  C16                         0.67      0.67      0.67      0.67         0.01
  C17                         0.67      0.67      0.67      0.67         0.01
  C18                         0.67      0.67      0.67      0.01         0.01
  C19                         0.67      0.67      0.67      0.01         0.01
  C20                         0.67      0.67      0.67      0.67         0.01
  C21                         0.67      0.67      0.67      0.01         0.01
  C22                         0.67      0.67      0.67      0.32         0.01
  C47                         0.67      0.67      0.67      0.67         0.01
  Cout                        0.01      0.67      0.01      0.67         0.01
  
  
  ***************
  Pumping Summary
  ***************
  
  ---------------------------------------------------------------------------------------------------------
                                                  Min       Avg       Max     Total     Power    % Time Off
                        Percent   Number of      Flow      Flow      Flow    Volume     Usage    Pump Curve
  Pump                 Utilized   Start-Ups       CMS       CMS       CMS  10^6 ltr     Kw-hr    Low   High
  ---------------------------------------------------------------------------------------------------------
  P1                       0.00           0      0.00      0.00      0.00     0.000      0.00    0.0    0.0
  

  Analysis begun on:  Mon Dec  2 16:55:30 2024
  Analysis ended on:  Mon Dec  2 16:55:30 2024
  Total elapsed time: < 1 sec