
  EPA STORM WATER MANAGEMENT MODEL - VERSION 5.2 (Build 5.2.4)
  PYSWMM TOOLKIT API - VERSION v1.0 (2023-11-27)
  ------------------------------------------------------------

  WARNING 04: minimum elevation drop used for Conduit C23
  WARNING 04: minimum elevation drop used for Conduit C24
  WARNING 04: minimum elevation drop used for Conduit C25
  WARNING 04: minimum elevation drop used for Conduit C26
  WARNING 04: minimum elevation drop used for Conduit C27
  WARNING 04: minimum elevation drop used for Conduit C28
  WARNING 04: minimum elevation drop used for Conduit C29
  WARNING 04: minimum elevation drop used for Conduit C30
  WARNING 04: minimum elevation drop used for Conduit C31
  WARNING 04: minimum elevation drop used for Conduit C32
  WARNING 04: minimum elevation drop used for Conduit C33
  WARNING 04: minimum elevation drop used for Conduit C34
  WARNING 04: minimum elevation drop used for Conduit C35
  WARNING 04: minimum elevation drop used for Conduit C36
  WARNING 04: minimum elevation drop used for Conduit C37
  WARNING 04: minimum elevation drop used for Conduit C38
  WARNING 04: minimum elevation drop used for Conduit C39
  WARNING 04: minimum elevation drop used for Conduit C40
  WARNING 04: minimum elevation drop used for Conduit C41
  WARNING 04: minimum elevation drop used for Conduit C43
  WARNING 04: minimum elevation drop used for Conduit C44
  WARNING 04: minimum elevation drop used for Conduit C45
  WARNING 04: minimum elevation drop used for Conduit C46
  WARNING 04: minimum elevation drop used for Conduit C48
  WARNING 04: minimum elevation drop used for Conduit C42
  WARNING 04: minimum elevation drop used for Conduit C50
  WARNING 04: minimum elevation drop used for Conduit C49
  WARNING 04: minimum elevation drop used for Conduit C01
  WARNING 04: minimum elevation drop used for Conduit C02
  WARNING 04: minimum elevation drop used for Conduit C03
  WARNING 04: minimum elevation drop used for Conduit C04
  WARNING 04: minimum elevation drop used for Conduit C05
  WARNING 04: minimum elevation drop used for Conduit C06
  WARNING 04: minimum elevation drop used for Conduit C07
  WARNING 04: minimum elevation drop used for Conduit C08
  WARNING 04: minimum elevation drop used for Conduit C09
  WARNING 04: minimum elevation drop used for Conduit C10
  WARNING 04: minimum elevation drop used for Conduit C11
  WARNING 04: minimum elevation drop used for Conduit C12
  WARNING 04: minimum elevation drop used for Conduit C13
  WARNING 04: minimum elevation drop used for Conduit C14
  WARNING 04: minimum elevation drop used for Conduit C15
  WARNING 04: minimum elevation drop used for Conduit C16
  WARNING 04: minimum elevation drop used for Conduit C17
  WARNING 04: minimum elevation drop used for Conduit C18
  WARNING 04: minimum elevation drop used for Conduit C19
  WARNING 04: minimum elevation drop used for Conduit C20
  WARNING 04: minimum elevation drop used for Conduit C21
  WARNING 04: minimum elevation drop used for Conduit C22
  WARNING 04: minimum elevation drop used for Conduit C47
  WARNING 04: minimum elevation drop used for Conduit Cout
  
  ****************
  Analysis Options
  ****************
  Flow Units ............... CMS
  Process Models:
    Rainfall/Runoff ........ YES
    RDII ................... NO
    Snowmelt ............... NO
    Groundwater ............ NO
    Flow Routing ........... YES
    Ponding Allowed ........ NO
    Water Quality .......... NO
  Infiltration Method ...... HORTON
  Flow Routing Method ...... DYNWAVE
  Surcharge Method ......... EXTRAN
  Starting Date ............ 10/17/2013 08:00:00
  Ending Date .............. 10/17/2013 09:40:00
  Antecedent Dry Days ...... 0.0
  Report Time Step ......... 00:10:00
  Wet Time Step ............ 00:05:00
  Dry Time Step ............ 01:00:00
  Routing Time Step ........ 300.00 sec
  Variable Time Step ....... YES
  Maximum Trials ........... 8
  Number of Threads ........ 1
  Head Tolerance ........... 0.001524 m
  
  
  *********************
  Rainfall File Summary
  *********************
  Station    First        Last         Recording   Periods    Periods    Periods
  ID         Date         Date         Frequency  w/Precip    Missing    Malfunc.
  -------------------------------------------------------------------------------
  132        10/17/2013   10/17/2013      10 min        11          0          0

  
  
  **************************        Volume         Depth
  Runoff Quantity Continuity     hectare-m            mm
  **************************     ---------       -------
  Total Precipitation ......       416.454      4164.711
  Evaporation Loss .........         0.000         0.000
  Infiltration Loss ........         0.000         0.000
  Surface Runoff ...........       397.690      3977.060
  Final Storage ............        21.991       219.923
  Continuity Error (%) .....        -0.775
  
  
  **************************        Volume        Volume
  Flow Routing Continuity        hectare-m      10^6 ltr
  **************************     ---------     ---------
  Dry Weather Inflow .......         0.000         0.000
  Wet Weather Inflow .......       384.116      3841.204
  Groundwater Inflow .......         0.000         0.000
  RDII Inflow ..............         0.000         0.000
  External Inflow ..........         0.000         0.000
  External Outflow .........         4.309        43.094
  Flooding Loss ............       376.848      3768.524
  Evaporation Loss .........         0.000         0.000
  Exfiltration Loss ........         0.000         0.000
  Initial Stored Volume ....         0.046         0.463
  Final Stored Volume ......         1.883        18.831
  Continuity Error (%) .....         0.292
  
  
  *************************
  Highest Continuity Errors
  *************************
  Node J30 (8.88%)
  Node J3 (7.87%)
  Node J17 (6.10%)
  Node J18 (3.20%)
  Node J13 (1.10%)
  
  
  ***************************
  Time-Step Critical Elements
  ***************************
  Link Cout (99.51%)
  
  
  ********************************
  Highest Flow Instability Indexes
  ********************************
  All links are stable.
  
  
  *********************************
  Most Frequent Nonconverging Nodes
  *********************************
  Node J18 (0.24%)
  Node OF (0.24%)
  
  
  *************************
  Routing Time Step Summary
  *************************
  Minimum Time Step           :     4.92 sec
  Average Time Step           :    14.60 sec
  Maximum Time Step           :   300.00 sec
  % of Time in Steady State   :     0.00
  Average Iterations per Step :     2.01
  % of Steps Not Converging   :     0.24
  Time Step Frequencies       :
     300.000 - 83.462 sec      :     0.24 %
     83.462 - 23.220 sec      :     0.00 %
     23.220 -  6.460 sec      :    99.27 %
      6.460 -  1.797 sec      :     0.49 %
      1.797 -  0.500 sec      :     0.00 %
  
  
  ***************************
  Subcatchment Runoff Summary
  ***************************
  
  ------------------------------------------------------------------------------------------------------------------------------
                            Total      Total      Total      Total     Imperv       Perv      Total       Total     Peak  Runoff
                           Precip      Runon       Evap      Infil     Runoff     Runoff     Runoff      Runoff   Runoff   Coeff
  Subcatchment                 mm         mm         mm         mm         mm         mm         mm    10^6 ltr      CMS
  ------------------------------------------------------------------------------------------------------------------------------
  S1                      4164.71       0.00       0.00       0.00      41.23    4123.48    4164.71     1050.60   260.60   1.000
  S2                      4164.71       0.00       0.00       0.00      37.90    4126.25    4164.15       32.36     8.03   1.000
  S3                      4164.71       0.00       0.00       0.00      37.90    4126.81    4164.71        8.62     2.14   1.000
  S4                      4164.71       0.00       0.00       0.00      37.90    4126.81    4164.71        8.54     2.12   1.000
  S5                      4164.71       0.00       0.00       0.00      37.90    4126.81    4164.71       12.45     3.09   1.000
  S6                      4164.71       0.00       0.00       0.00      37.90    4126.81    4164.71       34.32     8.51   1.000
  S7                      4164.71       0.00       0.00       0.00      37.90    4126.81    4164.71        6.46     1.60   1.000
  S8                      4164.71       0.00       0.00       0.00      37.90    4126.81    4164.71       20.28     5.03   1.000
  S9                      4164.71       0.00       0.00       0.00      37.90    4126.81    4164.71       25.07     6.22   1.000
  S10                     4164.71       0.00       0.00       0.00       0.00    4126.81    4126.81        5.82     1.44   0.991
  S11                     4164.71       0.00       0.00       0.00      37.90    4073.67    4111.56       60.15    15.06   0.987
  S12                     4164.71       0.00       0.00       0.00      37.90    4126.81    4164.71       36.15     8.97   1.000
  S13                     4164.71       0.00       0.00       0.00       0.00    4126.81    4126.81       34.83     8.64   0.991
  S14                     4164.71       0.00       0.00       0.00      34.98    4129.73    4164.71       33.44     8.30   1.000
  S15                     4164.71       0.00       0.00       0.00      34.98    4129.73    4164.71       31.24     7.75   1.000
  S16                     4164.71       0.00       0.00       0.00      32.07    4124.70    4156.77       73.41    18.24   0.998
  S17                     4164.71       0.00       0.00       0.00      32.07    3980.97    4013.04      136.64    33.94   0.964
  S18                     4164.71       0.00       0.00       0.00      32.07    4132.61    4164.68        5.37     1.33   1.000
  S19                     4164.71       0.00       0.00       0.00      32.07       0.00      32.07        0.08     0.02   0.008
  S20                     4164.71       0.00       0.00       0.00      32.07    4132.57    4164.64        4.25     1.05   1.000
  S21                     4164.71       0.00       0.00       0.00      32.07    4106.44    4138.51       68.62    17.12   0.994
  S22                     4164.71       0.00       0.00       0.00      32.07    4132.55    4164.61        1.37     0.34   1.000
  S23                     4164.71       0.00       0.00       0.00      32.07    4132.64    4164.71        1.62     0.40   1.000
  S24                     4164.71       0.00       0.00       0.00      32.07    4132.64    4164.71        2.04     0.51   1.000
  S25                     4164.71       0.00       0.00       0.00      32.07    4132.64    4164.71        2.46     0.61   1.000
  S26                     4164.71       0.00       0.00       0.00      32.07    4132.64    4164.71        2.87     0.71   1.000
  S27                     4164.71       0.00       0.00       0.00      32.07    4132.62    4164.69       34.61     8.58   1.000
  S28                     4164.71       0.00       0.00       0.00      32.07    4109.96    4142.03       36.78     9.17   0.995
  S29                     4164.71       0.00       0.00       0.00      32.07    4132.61    4164.68        3.83     0.95   1.000
  S30                     4164.71       0.00       0.00       0.00      32.07    3932.42    3964.49      252.54    61.64   0.952
  S31                     4164.71       0.00       0.00       0.00      33.32    4131.39    4164.71       56.43    14.00   1.000
  S32                     4164.71       0.00       0.00       0.00      33.32    4131.39    4164.71       17.37     4.31   1.000
  S33                     4164.71       0.00       0.00       0.00      39.15    4125.56    4164.71       12.95     3.21   1.000
  S34                     4164.71       0.00       0.00       0.00      39.15    4125.56    4164.71       13.70     3.40   1.000
  S35                     4164.71       0.00       0.00       0.00      37.90    4126.81    4164.71       16.74     4.15   1.000
  S36                     4164.71       0.00       0.00       0.00      37.90    4126.81    4164.71        6.87     1.70   1.000
  S37                     4164.71       0.00       0.00       0.00      37.90    4126.81    4164.71       14.99     3.72   1.000
  S38                     4164.71       0.00       0.00       0.00      37.90    4126.81    4164.71        0.67     0.17   1.000
  S39                     4164.71       0.00       0.00       0.00      37.90    4126.81    4164.71       17.08     4.24   1.000
  S40                     4164.71       0.00       0.00       0.00      37.90    4126.81    4164.71        5.87     1.46   1.000
  S41                     4164.71       0.00       0.00       0.00      37.90    4126.81    4164.71        9.45     2.35   1.000
  S42                     4164.71       0.00       0.00       0.00      37.90    4126.81    4164.71       13.16     3.26   1.000
  S43                     4164.71       0.00       0.00       0.00      37.90    4126.81    4164.71       29.99     7.44   1.000
  S44                     4164.71       0.00       0.00       0.00      37.90    4126.81    4164.71       21.74     5.39   1.000
  S45                     4164.71       0.00       0.00       0.00      37.90    4126.81    4164.71        2.21     0.55   1.000
  S46                     4164.71       0.00       0.00       0.00      37.90    4126.81    4164.71       20.16     5.00   1.000
  S47                     4164.71       0.00       0.00       0.00      37.90    4126.81    4164.71       40.73    10.10   1.000
  S48                     4164.71       0.00       0.00       0.00      37.90    4126.81    4164.71       47.06    11.67   1.000
  S49                     4164.71       0.00       0.00       0.00      37.90    4126.81    4164.71       28.61     7.10   1.000
  S50                     4164.71       0.00       0.00       0.00      37.90    4126.81    4164.71       23.57     5.85   1.000
  S51                     4164.71       0.00       0.00       0.00      37.90    4126.81    4164.71       13.91     3.45   1.000
  S52                     4164.71       0.00       0.00       0.00      37.90    4126.81    4164.71       36.86     9.14   1.000
  S53                     4164.71       0.00       0.00       0.00      37.90    4105.55    4143.45       50.47    12.58   0.995
  S54                     4164.71       0.00       0.00       0.00      37.90    4125.39    4163.29       19.03     4.72   1.000
  S55                     4164.71       0.00       0.00       0.00      37.90    4126.81    4164.71        1.58     0.39   1.000
  S56                     4164.71       0.00       0.00       0.00      37.90    4126.79    4164.69        1.58     0.39   1.000
  S57                     4164.71       0.00       0.00       0.00      37.90    4126.81    4164.71       21.53     5.34   1.000
  S58                     4164.71       0.00       0.00       0.00      37.90    4126.81    4164.71       27.65     6.86   1.000
  S59                     4164.71       0.00       0.00       0.00      37.90    4126.81    4164.71       26.86     6.66   1.000
  S60                     4164.71       0.00       0.00       0.00      32.07    4132.38    4164.45       16.37     4.06   1.000
  S61                     4164.71       0.00       0.00       0.00      32.07       0.00      32.07        0.11     0.03   0.008
  S62                     4164.71       0.00       0.00       0.00      32.07    3897.43    3929.49      210.58    50.52   0.944
  S63                     4164.71       0.00       0.00       0.00      32.07    4132.64    4164.71       39.15     9.71   1.000
  S64                     4164.71       0.00       0.00       0.00      32.07    4132.64    4164.71      105.99    26.29   1.000
  S65                     4164.71       0.00       0.00       0.00      32.07    4132.64    4164.71       16.91     4.19   1.000
  S66                     4164.71       0.00       0.00       0.00      32.07    4132.64    4164.71       27.28     6.77   1.000
  S67                     4164.71       0.00       0.00       0.00      32.07    4132.64    4164.71       50.98    12.64   1.000
  S68                     4164.71       0.00       0.00       0.00      32.07    4132.64    4164.71       59.76    14.82   1.000
  S69                     4164.71       0.00       0.00       0.00      32.07       0.00      32.07        0.80     0.20   0.008
  S70                     4164.71       0.00       0.00       0.00      32.07    4104.79    4136.86      108.26    27.02   0.993
  S71                     4164.71       0.00       0.00       0.00      37.90    4126.81    4164.71       61.26    15.20   1.000
  S72                     4164.71       0.00       0.00       0.00      32.07    4126.87    4158.94       20.63     5.12   0.999
  S73                     4164.71       0.00       0.00       0.00      32.07    4132.64    4164.71       87.29    21.65   1.000
  S74                     4164.71       0.00       0.00       0.00      32.07       0.00      32.07        0.21     0.05   0.008
  S75                     4164.71       0.00       0.00       0.00      32.07    4132.64    4164.71        2.79     0.69   1.000
  S76                     4164.71       0.00       0.00       0.00      32.07    4132.64    4164.71       55.02    13.65   1.000
  S77                     4164.71       0.00       0.00       0.00      32.07    4132.64    4164.71       44.52    11.04   1.000
  S78                     4164.71       0.00       0.00       0.00      32.07    4132.64    4164.71       32.28     8.01   1.000
  S79                     4164.71       0.00       0.00       0.00      37.90    4126.81    4164.71       28.28     7.01   1.000
  S80                     4164.71       0.00       0.00       0.00      32.07    4132.63    4164.70       11.49     2.85   1.000
  S81                     4164.71       0.00       0.00       0.00      32.07    4132.64    4164.71       47.10    11.68   1.000
  S82                     4164.71       0.00       0.00       0.00      32.07    4132.64    4164.71       45.98    11.40   1.000
  S83                     4164.71       0.00       0.00       0.00      32.07    4132.64    4164.71       29.57     7.33   1.000
  S84                     4164.71       0.00       0.00       0.00      37.90    4126.81    4164.71       19.32     4.79   1.000
  S85                     4164.71       0.00       0.00       0.00      37.90    4112.53    4150.42       51.30    12.77   0.997
  S86                     4164.71       0.00       0.00       0.00       0.00    4126.81    4126.81       47.75    11.84   0.991
  S87                     4164.71       0.00       0.00       0.00      37.90    4126.81    4164.71       51.73    12.83   1.000
  S88                     4164.71       0.00       0.00       0.00      37.90    4126.81    4164.71        9.33     2.31   1.000
  S89                     4164.71       0.00       0.00       0.00      37.90    4126.81    4164.71       42.11    10.44   1.000
  S90                     4164.71       0.00       0.00       0.00       0.00    4126.81    4126.81       20.26     5.03   0.991
  S91                     4164.71       0.00       0.00       0.00      37.90    4126.81    4164.71        6.87     1.70   1.000
  
  
  ******************
  Node Depth Summary
  ******************
  
  ---------------------------------------------------------------------------------
                                 Average  Maximum  Maximum  Time of Max    Reported
                                   Depth    Depth      HGL   Occurrence   Max Depth
  Node                 Type       Meters   Meters   Meters  days hr:min      Meters
  ---------------------------------------------------------------------------------
  J7                   JUNCTION     2.49     2.50     2.50     0  00:05        2.50
  J13                  JUNCTION     2.49     2.50     2.50     0  00:05        2.50
  J19                  JUNCTION     2.49     2.50     2.50     0  00:05        2.50
  J25                  JUNCTION     2.49     2.50     2.50     0  00:05        2.50
  J1                   JUNCTION     2.49     2.50     2.50     0  00:05        2.50
  J2                   JUNCTION     2.49     2.50     2.50     0  00:05        2.50
  J3                   JUNCTION     2.49     2.50     2.50     0  00:05        2.50
  J4                   JUNCTION     2.49     2.50     2.50     0  00:05        2.50
  J5                   JUNCTION     2.49     2.50     2.50     0  00:05        2.50
  J6                   JUNCTION     2.49     2.50     2.50     0  00:05        2.50
  J8                   JUNCTION     2.49     2.50     2.50     0  00:05        2.50
  J9                   JUNCTION     2.49     2.50     2.50     0  00:05        2.50
  J10                  JUNCTION     2.49     2.50     2.50     0  00:05        2.50
  J11                  JUNCTION     2.49     2.50     2.50     0  00:05        2.50
  J12                  JUNCTION     2.49     2.50     2.50     0  00:05        2.50
  J14                  JUNCTION     2.49     2.50     2.50     0  00:05        2.50
  J15                  JUNCTION     2.49     2.50     2.50     0  00:05        2.50
  J16                  JUNCTION     2.49     2.50     2.50     0  00:05        2.50
  J17                  JUNCTION     2.49     2.50     2.50     0  00:05        2.50
  J18                  JUNCTION     2.49     2.50     2.50     0  00:05        2.50
  J20                  JUNCTION     2.49     2.50     2.50     0  00:05        2.50
  J21                  JUNCTION     2.49     2.50     2.50     0  00:05        2.50
  J22                  JUNCTION     2.49     2.50     2.50     0  00:05        2.50
  J23                  JUNCTION     2.49     2.50     2.50     0  00:05        2.50
  J24                  JUNCTION     2.49     2.50     2.50     0  00:05        2.50
  J26                  JUNCTION     2.49     2.50     2.50     0  00:05        2.50
  J27                  JUNCTION     2.49     2.50     2.50     0  00:05        2.50
  J29                  JUNCTION     2.49     2.50     2.50     0  00:05        2.50
  J30                  JUNCTION     2.49     2.50     2.50     0  00:05        2.50
  J31                  JUNCTION     2.49     2.50     2.50     0  00:05        2.50
  J33                  JUNCTION     2.49     2.50     2.50     0  00:05        2.50
  J32                  JUNCTION     2.49     2.50     2.50     0  00:05        2.50
  J28                  JUNCTION     2.49     2.50     2.50     0  00:05        2.50
  OF                   OUTFALL      1.37     1.41     1.41     0  00:05        1.37
  
  
  *******************
  Node Inflow Summary
  *******************
  
  -------------------------------------------------------------------------------------------------
                                  Maximum  Maximum                  Lateral       Total        Flow
                                  Lateral    Total  Time of Max      Inflow      Inflow     Balance
                                   Inflow   Inflow   Occurrence      Volume      Volume       Error
  Node                 Type           CMS      CMS  days hr:min    10^6 ltr    10^6 ltr     Percent
  -------------------------------------------------------------------------------------------------
  J7                   JUNCTION    67.640   67.640     0  00:20         269         269       0.453
  J13                  JUNCTION     5.894    6.279     0  00:15        22.9        24.2       1.113
  J19                  JUNCTION   279.301  279.301     0  00:20    1.09e+03    1.09e+03       0.814
  J25                  JUNCTION    33.938   34.685     0  00:20         132         135       0.552
  J1                   JUNCTION    23.445   23.445     0  00:20        91.3        91.3       0.844
  J2                   JUNCTION    17.613   17.860     0  00:15        68.6        69.4       0.751
  J3                   JUNCTION     0.785    9.469     0  00:05        3.06        8.66       8.546
  J4                   JUNCTION    51.002   51.838     0  00:15         199         201       0.712
  J5                   JUNCTION    42.169   42.381     0  00:15         164         165       0.645
  J6                   JUNCTION    18.450   18.450     0  00:20        71.9        71.9       0.668
  J8                   JUNCTION    28.388   28.388     0  00:15         111         111       0.869
  J9                   JUNCTION    12.766   13.008     0  00:20        49.6        50.7       0.645
  J10                  JUNCTION    19.049   19.049     0  00:15        74.2        74.2       0.589
  J11                  JUNCTION    20.465   21.005     0  00:15        79.7        81.5       0.805
  J12                  JUNCTION    21.653   22.197     0  00:15        84.4        86.1       0.885
  J14                  JUNCTION    18.347   18.347     0  00:15        71.5        71.5       0.876
  J15                  JUNCTION    26.255   26.255     0  00:20         102         102       0.726
  J16                  JUNCTION    15.196   16.424     0  00:15        59.2          63       0.849
  J17                  JUNCTION     0.198    4.708     0  00:05        0.77        4.89       6.500
  J18                  JUNCTION     0.692    1.489     0  00:05         2.7         4.7       3.304
  J20                  JUNCTION    51.280   51.280     0  00:20         199         199       0.809
  J21                  JUNCTION    16.935   16.935     0  00:20          66          66       0.876
  J22                  JUNCTION    34.763   34.763     0  00:20         135         135       0.666
  J23                  JUNCTION    18.243   18.516     0  00:20        70.9          72       0.796
  J24                  JUNCTION     2.405    2.712     0  00:15        9.37        10.3       0.562
  J26                  JUNCTION    14.959   14.959     0  00:20        58.3        58.3       0.876
  J27                  JUNCTION    13.120   13.767     0  00:15        51.1        53.2       0.926
  J29                  JUNCTION    21.518   22.125     0  00:15        83.8        85.8       0.886
  J30                  JUNCTION     0.000    5.595     0  00:05           0        4.51       9.749
  J31                  JUNCTION    61.643   61.972     0  00:20         243         245       0.372
  J33                  JUNCTION    21.173   21.173     0  00:20        82.5        82.5       0.873
  J32                  JUNCTION     9.659    9.659     0  00:15        37.6        37.6       0.753
  J28                  JUNCTION    15.444   16.126     0  00:15        60.2        62.3       0.759
  OF                   OUTFALL      0.000    7.967     0  00:05           0        43.1       0.000
  
  
  **********************
  Node Surcharge Summary
  **********************
  
  Surcharging occurs when water rises above the top of the highest conduit.
  ---------------------------------------------------------------------
                                               Max. Height   Min. Depth
                                   Hours       Above Crown    Below Rim
  Node                 Type      Surcharged         Meters       Meters
  ---------------------------------------------------------------------
  J7                   JUNCTION        1.67          0.850        0.000
  J13                  JUNCTION        1.67          0.850        0.000
  J19                  JUNCTION        1.67          0.850        0.000
  J25                  JUNCTION        1.67          0.850        0.000
  J1                   JUNCTION        1.67          0.850        0.000
  J2                   JUNCTION        1.67          0.850        0.000
  J3                   JUNCTION        1.67          0.850        0.000
  J4                   JUNCTION        1.67          0.850        0.000
  J5                   JUNCTION        1.67          0.850        0.000
  J6                   JUNCTION        1.67          0.850        0.000
  J8                   JUNCTION        1.67          0.850        0.000
  J9                   JUNCTION        1.67          0.850        0.000
  J10                  JUNCTION        1.67          0.850        0.000
  J11                  JUNCTION        1.67          0.850        0.000
  J12                  JUNCTION        1.67          0.850        0.000
  J14                  JUNCTION        1.67          0.850        0.000
  J15                  JUNCTION        1.67          0.850        0.000
  J16                  JUNCTION        1.67          0.850        0.000
  J17                  JUNCTION        1.67          0.850        0.000
  J18                  JUNCTION        1.67          0.850        0.000
  J20                  JUNCTION        1.67          0.850        0.000
  J21                  JUNCTION        1.67          0.850        0.000
  J22                  JUNCTION        1.67          0.850        0.000
  J23                  JUNCTION        1.67          0.850        0.000
  J24                  JUNCTION        1.67          0.850        0.000
  J26                  JUNCTION        1.67          0.850        0.000
  J27                  JUNCTION        1.67          0.850        0.000
  J29                  JUNCTION        1.67          0.850        0.000
  J30                  JUNCTION        1.67          0.850        0.000
  J31                  JUNCTION        1.67          0.850        0.000
  J33                  JUNCTION        1.67          0.850        0.000
  J32                  JUNCTION        1.67          0.850        0.000
  J28                  JUNCTION        1.67          0.850        0.000
  
  
  *********************
  Node Flooding Summary
  *********************
  
  Flooding refers to all water that overflows a node, whether it ponds or not.
  --------------------------------------------------------------------------
                                                             Total   Maximum
                                 Maximum   Time of Max       Flood    Ponded
                        Hours       Rate    Occurrence      Volume     Depth
  Node                 Flooded       CMS   days hr:min    10^6 ltr    Meters
  --------------------------------------------------------------------------
  J7                      1.67    67.264      0  00:20     268.187     0.000
  J13                     1.67     6.276      0  00:15      24.199     0.000
  J19                     1.67   271.948      0  00:20    1044.764     0.000
  J25                     1.67    34.626      0  00:20     134.722     0.000
  J1                      1.67    23.237      0  00:20      90.518     0.000
  J2                      1.67    17.292      0  00:20      67.313     0.000
  J3                      1.67     8.903      0  00:05       8.663     0.000
  J4                      1.67    50.989      0  00:20     197.678     0.000
  J5                      1.67    41.127      0  00:20     159.664     0.000
  J6                      1.67    17.692      0  00:20      68.850     0.000
  J8                      1.67    28.305      0  00:20     110.213     0.000
  J9                      1.67    12.687      0  00:20      49.332     0.000
  J10                     1.67    18.086      0  00:20      70.274     0.000
  J11                     1.67    20.404      0  00:20      79.402     0.000
  J12                     1.67    21.865      0  00:15      85.078     0.000
  J14                     1.67    18.347      0  00:15      71.473     0.000
  J15                     1.67    25.854      0  00:20     100.347     0.000
  J16                     1.67    15.876      0  00:15      61.064     0.000
  J17                     1.67     3.989      0  00:05       3.926     0.000
  J18                     1.58     1.042      0  00:15       3.641     0.000
  J20                     1.67    51.271      0  00:20     199.157     0.000
  J21                     1.67    16.935      0  00:20      65.972     0.000
  J22                     1.67    34.171      0  00:20     132.407     0.000
  J23                     1.67    18.093      0  00:20      70.349     0.000
  J24                     1.67     2.359      0  00:20       9.157     0.000
  J26                     1.67    14.959      0  00:20      58.273     0.000
  J27                     1.67    13.407      0  00:15      52.063     0.000
  J29                     1.67    21.632      0  00:15      84.131     0.000
  J30                     1.67     5.390      0  00:05       4.511     0.000
  J31                     1.67    61.486      0  00:20     242.959     0.000
  J33                     1.67    21.173      0  00:20      82.476     0.000
  J32                     1.67     9.400      0  00:20      36.617     0.000
  J28                     1.67    15.614      0  00:17      60.569     0.000
  
  
  ***********************
  Outfall Loading Summary
  ***********************
  
  -----------------------------------------------------------
                         Flow       Avg       Max       Total
                         Freq      Flow      Flow      Volume
  Outfall Node           Pcnt       CMS       CMS    10^6 ltr
  -----------------------------------------------------------
  OF                   100.00     7.336     7.967      43.094
  -----------------------------------------------------------
  System               100.00     7.336     7.967      43.094
  
  
  ********************
  Link Flow Summary
  ********************
  
  -----------------------------------------------------------------------------
                                 Maximum  Time of Max   Maximum    Max/    Max/
                                  |Flow|   Occurrence   |Veloc|    Full    Full
  Link                 Type          CMS  days hr:min     m/sec    Flow   Depth
  -----------------------------------------------------------------------------
  P1                   PUMP        0.000     0  00:00                          
  C23                  CONDUIT     0.093     0  00:05      0.04    0.81    1.00
  C24                  CONDUIT     1.044     0  00:05      0.49    9.05    1.00
  C25                  CONDUIT     0.100     0  00:05      0.05    0.80    1.00
  C26                  CONDUIT     0.575     0  00:05      0.27    4.50    1.00
  C27                  CONDUIT     0.103     0  00:05      0.05    0.85    1.00
  C28                  CONDUIT     1.163     0  00:05      0.54    8.02    1.00
  C29                  CONDUIT     0.396     0  00:05      0.19    2.79    1.00
  C30                  CONDUIT     1.197     0  00:05      0.56   10.52    1.00
  C31                  CONDUIT     0.364     0  00:05      0.17    3.18    1.00
  C32                  CONDUIT     2.344     0  00:05      1.10   15.15    1.00
  C33                  CONDUIT     6.030     0  00:05      2.82   35.28    1.00
  C34                  CONDUIT     1.110     0  00:05      0.52    8.84    1.00
  C35                  CONDUIT     0.315     0  00:05      0.15    3.35    1.00
  C36                  CONDUIT     0.655     0  00:05      0.31    6.18    1.00
  C37                  CONDUIT     0.439     0  00:05      0.21    3.01    1.00
  C38                  CONDUIT     1.045     0  00:05      0.49    7.28    1.00
  C39                  CONDUIT     0.789     0  00:05      0.37    5.00    1.00
  C40                  CONDUIT     0.000     0  00:00      0.00    0.00    1.00
  C41                  CONDUIT     0.000     0  00:00      0.00    0.00    1.00
  C43                  CONDUIT     0.000     0  00:00      0.00    0.00    1.00
  C44                  CONDUIT     0.509     0  00:05      0.24    4.35    1.00
  C45                  CONDUIT     2.666     0  00:05      1.25   22.88    1.00
  C46                  CONDUIT     2.538     0  00:05      1.19   21.03    1.00
  C48                  CONDUIT     0.000     0  00:05      0.00    0.00    1.00
  C42                  CONDUIT     0.391     0  00:05      0.18    3.10    1.00
  C50                  CONDUIT     0.629     0  00:05      0.29    6.08    1.00
  C49                  CONDUIT     0.399     0  00:05      0.19    3.48    1.00
  C01                  CONDUIT     0.000     0  00:00      0.00    0.00    1.00
  C02                  CONDUIT     0.000     0  00:00      0.00    0.00    1.00
  C03                  CONDUIT     0.730     0  00:05      0.34    5.83    1.00
  C04                  CONDUIT     0.436     0  00:05      0.20    3.43    1.00
  C05                  CONDUIT     0.908     0  00:05      0.42    7.24    1.00
  C06                  CONDUIT     0.000     0  00:00      0.00    0.00    1.00
  C07                  CONDUIT     0.000     0  00:00      0.00    0.00    1.00
  C08                  CONDUIT     0.000     0  00:00      0.00    0.00    1.00
  C09                  CONDUIT     1.034     0  00:05      0.48    9.05    1.00
  C10                  CONDUIT     1.189     0  00:05      0.56    9.48    1.00
  C11                  CONDUIT     0.000     0  00:00      0.00    0.00    1.00
  C12                  CONDUIT     0.384     0  00:05      0.18    3.31    1.00
  C13                  CONDUIT     0.515     0  00:05      0.24    4.48    1.00
  C14                  CONDUIT     3.049     0  00:05      1.43   24.22    1.00
  C15                  CONDUIT     0.559     0  00:05      0.26    4.44    1.00
  C16                  CONDUIT     0.579     0  00:05      0.27    5.08    1.00
  C17                  CONDUIT     1.199     0  00:05      0.56   10.58    1.00
  C18                  CONDUIT     0.000     0  00:00      0.00    0.00    1.00
  C19                  CONDUIT     0.000     0  00:05      0.00    0.00    1.00
  C20                  CONDUIT     0.663     0  00:05      0.31    5.90    1.00
  C21                  CONDUIT     1.061     0  00:05      0.50   10.02    1.00
  C22                  CONDUIT     0.326     0  00:05      0.15    2.57    1.00
  C47                  CONDUIT     1.320     0  00:05      0.62   13.57    1.00
  Cout                 CONDUIT     7.967     0  00:05      3.85   62.91    0.93
  
  
  ***************************
  Flow Classification Summary
  ***************************
  
  -------------------------------------------------------------------------------------
                      Adjusted    ---------- Fraction of Time in Flow Class ---------- 
                       /Actual         Up    Down  Sub   Sup   Up    Down  Norm  Inlet 
  Conduit               Length    Dry  Dry   Dry   Crit  Crit  Crit  Crit  Ltd   Ctrl  
  -------------------------------------------------------------------------------------
  C23                     1.00   0.00  0.00  0.00  1.00  0.00  0.00  0.00  0.00  0.00
  C24                     1.00   0.00  0.00  0.00  1.00  0.00  0.00  0.00  0.00  0.00
  C25                     1.00   0.00  0.00  0.00  1.00  0.00  0.00  0.00  0.00  0.00
  C26                     1.00   0.00  0.00  0.00  1.00  0.00  0.00  0.00  0.00  0.00
  C27                     1.00   0.00  0.00  0.00  1.00  0.00  0.00  0.00  0.00  0.00
  C28                     1.00   0.00  0.00  0.00  1.00  0.00  0.00  0.00  0.00  0.00
  C29                     1.00   0.00  0.00  0.00  1.00  0.00  0.00  0.00  0.00  0.00
  C30                     1.00   0.00  0.00  0.00  1.00  0.00  0.00  0.00  0.00  0.00
  C31                     1.00   0.00  0.00  0.00  1.00  0.00  0.00  0.00  0.00  0.00
  C32                     1.00   0.00  0.00  0.00  1.00  0.00  0.00  0.00  0.00  0.00
  C33                     1.00   0.00  0.00  0.00  1.00  0.00  0.00  0.00  0.00  0.00
  C34                     1.00   0.00  0.00  0.00  1.00  0.00  0.00  0.00  0.00  0.00
  C35                     1.00   0.00  0.00  0.00  1.00  0.00  0.00  0.00  0.00  0.00
  C36                     1.00   0.00  0.00  0.00  1.00  0.00  0.00  0.00  0.00  0.00
  C37                     1.00   0.00  0.00  0.00  1.00  0.00  0.00  0.00  0.00  0.00
  C38                     1.00   0.00  0.00  0.00  1.00  0.00  0.00  0.00  0.00  0.00
  C39                     1.00   0.00  0.00  0.00  1.00  0.00  0.00  0.00  0.00  0.00
  C40                     1.00   0.00  0.00  0.00  1.00  0.00  0.00  0.00  0.00  0.00
  C41                     1.00   0.00  0.00  0.00  1.00  0.00  0.00  0.00  0.00  0.00
  C43                     1.00   0.00  0.00  0.00  1.00  0.00  0.00  0.00  0.00  0.00
  C44                     1.00   0.00  0.00  0.00  1.00  0.00  0.00  0.00  0.00  0.00
  C45                     1.00   0.00  0.00  0.00  1.00  0.00  0.00  0.00  0.00  0.00
  C46                     1.00   0.00  0.00  0.00  1.00  0.00  0.00  0.00  0.00  0.00
  C48                     1.00   0.00  0.00  0.00  1.00  0.00  0.00  0.00  0.00  0.00
  C42                     1.00   0.00  0.00  0.00  1.00  0.00  0.00  0.00  0.00  0.00
  C50                     1.00   0.00  0.00  0.00  1.00  0.00  0.00  0.00  0.00  0.00
  C49                     1.00   0.00  0.00  0.00  1.00  0.00  0.00  0.00  0.00  0.00
  C01                     1.00   0.00  0.00  0.00  1.00  0.00  0.00  0.00  0.00  0.00
  C02                     1.00   0.00  0.00  0.00  1.00  0.00  0.00  0.00  0.00  0.00
  C03                     1.00   0.00  0.00  0.00  1.00  0.00  0.00  0.00  0.00  0.00
  C04                     1.00   0.00  0.00  0.00  1.00  0.00  0.00  0.00  0.00  0.00
  C05                     1.00   0.00  0.00  0.00  1.00  0.00  0.00  0.00  0.00  0.00
  C06                     1.00   0.00  0.00  0.00  1.00  0.00  0.00  0.00  0.00  0.00
  C07                     1.00   0.00  0.00  0.00  1.00  0.00  0.00  0.00  0.00  0.00
  C08                     1.00   0.00  0.00  0.00  1.00  0.00  0.00  0.00  0.00  0.00
  C09                     1.00   0.00  0.00  0.00  1.00  0.00  0.00  0.00  0.00  0.00
  C10                     1.00   0.00  0.00  0.00  1.00  0.00  0.00  0.00  0.00  0.00
  C11                     1.00   0.00  0.00  0.00  1.00  0.00  0.00  0.00  0.00  0.00
  C12                     1.00   0.00  0.00  0.00  1.00  0.00  0.00  0.00  0.00  0.00
  C13                     1.00   0.00  0.00  0.00  1.00  0.00  0.00  0.00  0.00  0.00
  C14                     1.00   0.00  0.00  0.00  1.00  0.00  0.00  0.00  0.00  0.00
  C15                     1.00   0.00  0.00  0.00  1.00  0.00  0.00  0.00  0.00  0.00
  C16                     1.00   0.00  0.00  0.00  1.00  0.00  0.00  0.00  0.00  0.00
  C17                     1.00   0.00  0.00  0.00  1.00  0.00  0.00  0.00  0.00  0.00
  C18                     1.00   0.00  0.00  0.00  1.00  0.00  0.00  0.00  0.00  0.00
  C19                     1.00   0.00  0.00  0.00  1.00  0.00  0.00  0.00  0.00  0.00
  C20                     1.00   0.00  0.00  0.00  1.00  0.00  0.00  0.00  0.00  0.00
  C21                     1.00   0.00  0.00  0.00  1.00  0.00  0.00  0.00  0.00  0.00
  C22                     1.00   0.00  0.00  0.00  1.00  0.00  0.00  0.00  0.00  0.00
  C47                     1.00   0.00  0.00  0.00  1.00  0.00  0.00  0.00  0.00  0.00
  Cout                    1.00   0.00  0.00  0.00  1.00  0.00  0.00  0.00  0.00  0.00
  
  
  *************************
  Conduit Surcharge Summary
  *************************
  
  ----------------------------------------------------------------------------
                                                           Hours        Hours 
                         --------- Hours Full --------   Above Full   Capacity
  Conduit                Both Ends  Upstream  Dnstream   Normal Flow   Limited
  ----------------------------------------------------------------------------
  C23                         1.67      1.67      1.67      0.01         0.01
  C24                         1.67      1.67      1.67      0.94         0.01
  C25                         1.67      1.67      1.67      0.01         0.01
  C26                         1.67      1.67      1.67      0.75         0.01
  C27                         1.67      1.67      1.67      0.01         0.01
  C28                         1.67      1.67      1.67      0.75         0.01
  C29                         1.67      1.67      1.67      0.58         0.01
  C30                         1.67      1.67      1.67      0.96         0.01
  C31                         1.67      1.67      1.67      0.74         0.01
  C32                         1.67      1.67      1.67      0.75         0.01
  C33                         1.67      1.67      1.67      0.71         0.01
  C34                         1.67      1.67      1.67      0.86         0.01
  C35                         1.67      1.67      1.67      0.90         0.01
  C36                         1.67      1.67      1.67      0.95         0.01
  C37                         1.67      1.67      1.67      0.59         0.01
  C38                         1.67      1.67      1.67      0.74         0.01
  C39                         1.67      1.67      1.67      0.64         0.01
  C40                         1.67      1.67      1.67      0.01         0.01
  C41                         1.67      1.67      1.67      0.01         0.01
  C43                         1.67      1.67      1.67      0.01         0.01
  C44                         1.67      1.67      1.67      0.81         0.01
  C45                         1.67      1.67      1.67      0.99         0.01
  C46                         1.67      1.67      1.67      0.95         0.01
  C48                         1.67      1.67      1.67      0.01         0.01
  C42                         1.67      1.67      1.67      0.67         0.01
  C50                         1.67      1.67      1.67      0.97         0.01
  C49                         1.67      1.67      1.67      0.77         0.01
  C01                         1.67      1.67      1.67      0.01         0.01
  C02                         1.67      1.67      1.67      0.01         0.01
  C03                         1.67      1.67      1.67      0.81         0.01
  C04                         1.67      1.67      1.67      0.70         0.01
  C05                         1.67      1.67      1.67      0.84         0.01
  C06                         1.67      1.67      1.67      0.01         0.01
  C07                         1.67      1.67      1.67      0.01         0.01
  C08                         1.67      1.67      1.67      0.01         0.01
  C09                         1.67      1.67      1.67      0.94         0.01
  C10                         1.67      1.67      1.67      0.87         0.01
  C11                         1.67      1.67      1.67      0.01         0.01
  C12                         1.67      1.67      1.67      0.74         0.01
  C13                         1.67      1.67      1.67      0.82         0.08
  C14                         1.67      1.67      1.67      0.93         0.01
  C15                         1.67      1.67      1.67      0.76         0.08
  C16                         1.67      1.67      1.67      0.86         0.01
  C17                         1.67      1.67      1.67      0.97         0.01
  C18                         1.67      1.67      1.67      0.01         0.01
  C19                         1.67      1.67      1.67      0.01         0.01
  C20                         1.67      1.67      1.67      0.90         0.01
  C21                         1.67      1.67      1.67      1.02         0.01
  C22                         1.67      1.67      1.67      0.61         0.01
  C47                         1.67      1.67      1.67      1.13         0.01
  Cout                        0.01      1.67      0.01      1.67         0.01
  
  
  ***************
  Pumping Summary
  ***************
  
  ---------------------------------------------------------------------------------------------------------
                                                  Min       Avg       Max     Total     Power    % Time Off
                        Percent   Number of      Flow      Flow      Flow    Volume     Usage    Pump Curve
  Pump                 Utilized   Start-Ups       CMS       CMS       CMS  10^6 ltr     Kw-hr    Low   High
  ---------------------------------------------------------------------------------------------------------
  P1                       0.00           0      0.00      0.00      0.00     0.000      0.00    0.0    0.0
  

  Analysis begun on:  Thu Oct 31 20:14:14 2024
  Analysis ended on:  Thu Oct 31 20:14:14 2024
  Total elapsed time: < 1 sec