
  EPA STORM WATER MANAGEMENT MODEL - VERSION 5.2 (Build 5.2.4)
  PYSWMM TOOLKIT API - VERSION v1.0 (2023-11-27)
  ------------------------------------------------------------

  WARNING 04: minimum elevation drop used for Conduit C23
  WARNING 04: minimum elevation drop used for Conduit C24
  WARNING 04: minimum elevation drop used for Conduit C25
  WARNING 04: minimum elevation drop used for Conduit C26
  WARNING 04: minimum elevation drop used for Conduit C27
  WARNING 04: minimum elevation drop used for Conduit C28
  WARNING 04: minimum elevation drop used for Conduit C29
  WARNING 04: minimum elevation drop used for Conduit C30
  WARNING 04: minimum elevation drop used for Conduit C31
  WARNING 04: minimum elevation drop used for Conduit C32
  WARNING 04: minimum elevation drop used for Conduit C33
  WARNING 04: minimum elevation drop used for Conduit C34
  WARNING 04: minimum elevation drop used for Conduit C35
  WARNING 04: minimum elevation drop used for Conduit C36
  WARNING 04: minimum elevation drop used for Conduit C37
  WARNING 04: minimum elevation drop used for Conduit C38
  WARNING 04: minimum elevation drop used for Conduit C39
  WARNING 04: minimum elevation drop used for Conduit C40
  WARNING 04: minimum elevation drop used for Conduit C41
  WARNING 04: minimum elevation drop used for Conduit C43
  WARNING 04: minimum elevation drop used for Conduit C44
  WARNING 04: minimum elevation drop used for Conduit C45
  WARNING 04: minimum elevation drop used for Conduit C46
  WARNING 04: minimum elevation drop used for Conduit C48
  WARNING 04: minimum elevation drop used for Conduit C42
  WARNING 04: minimum elevation drop used for Conduit C50
  WARNING 04: minimum elevation drop used for Conduit C49
  WARNING 04: minimum elevation drop used for Conduit C01
  WARNING 04: minimum elevation drop used for Conduit C02
  WARNING 04: minimum elevation drop used for Conduit C03
  WARNING 04: minimum elevation drop used for Conduit C04
  WARNING 04: minimum elevation drop used for Conduit C05
  WARNING 04: minimum elevation drop used for Conduit C06
  WARNING 04: minimum elevation drop used for Conduit C07
  WARNING 04: minimum elevation drop used for Conduit C08
  WARNING 04: minimum elevation drop used for Conduit C09
  WARNING 04: minimum elevation drop used for Conduit C10
  WARNING 04: minimum elevation drop used for Conduit C11
  WARNING 04: minimum elevation drop used for Conduit C12
  WARNING 04: minimum elevation drop used for Conduit C13
  WARNING 04: minimum elevation drop used for Conduit C14
  WARNING 04: minimum elevation drop used for Conduit C15
  WARNING 04: minimum elevation drop used for Conduit C16
  WARNING 04: minimum elevation drop used for Conduit C17
  WARNING 04: minimum elevation drop used for Conduit C18
  WARNING 04: minimum elevation drop used for Conduit C19
  WARNING 04: minimum elevation drop used for Conduit C20
  WARNING 04: minimum elevation drop used for Conduit C21
  WARNING 04: minimum elevation drop used for Conduit C22
  WARNING 04: minimum elevation drop used for Conduit C47
  WARNING 04: minimum elevation drop used for Conduit Cout
  
  ****************
  Analysis Options
  ****************
  Flow Units ............... CMS
  Process Models:
    Rainfall/Runoff ........ YES
    RDII ................... NO
    Snowmelt ............... NO
    Groundwater ............ NO
    Flow Routing ........... YES
    Ponding Allowed ........ NO
    Water Quality .......... NO
  Infiltration Method ...... HORTON
  Flow Routing Method ...... DYNWAVE
  Surcharge Method ......... EXTRAN
  Starting Date ............ 08/26/2022 13:00:00
  Ending Date .............. 08/26/2022 13:50:00
  Antecedent Dry Days ...... 0.0
  Report Time Step ......... 00:10:00
  Wet Time Step ............ 00:05:00
  Dry Time Step ............ 01:00:00
  Routing Time Step ........ 300.00 sec
  Variable Time Step ....... YES
  Maximum Trials ........... 8
  Number of Threads ........ 1
  Head Tolerance ........... 0.001524 m
  
  
  *********************
  Rainfall File Summary
  *********************
  Station    First        Last         Recording   Periods    Periods    Periods
  ID         Date         Date         Frequency  w/Precip    Missing    Malfunc.
  -------------------------------------------------------------------------------
  468        08/26/2022   08/26/2022      10 min         6          0          0

  
  
  **************************        Volume         Depth
  Runoff Quantity Continuity     hectare-m            mm
  **************************     ---------       -------
  Total Precipitation ......        85.013       850.159
  Evaporation Loss .........         0.000         0.000
  Infiltration Loss ........         0.000         0.000
  Surface Runoff ...........        78.689       786.920
  Final Storage ............         8.802        88.024
  Continuity Error (%) .....        -2.915
  
  
  **************************        Volume        Volume
  Flow Routing Continuity        hectare-m      10^6 ltr
  **************************     ---------     ---------
  Dry Weather Inflow .......         0.000         0.000
  Wet Weather Inflow .......        67.428       674.285
  Groundwater Inflow .......         0.000         0.000
  RDII Inflow ..............         0.000         0.000
  External Inflow ..........         0.000         0.000
  External Outflow .........         2.104        21.044
  Flooding Loss ............        63.432       634.330
  Evaporation Loss .........         0.000         0.000
  Exfiltration Loss ........         0.000         0.000
  Initial Stored Volume ....         0.046         0.463
  Final Stored Volume ......         1.883        18.831
  Continuity Error (%) .....         0.080
  
  
  *************************
  Highest Continuity Errors
  *************************
  Node J17 (-22.85%)
  Node J30 (-10.64%)
  Node J18 (8.62%)
  Node J24 (6.64%)
  Node J3 (-6.09%)
  
  
  ***************************
  Time-Step Critical Elements
  ***************************
  Link Cout (98.98%)
  
  
  ********************************
  Highest Flow Instability Indexes
  ********************************
  Link C20 (3)
  Link C10 (2)
  Link C09 (2)
  Link C33 (2)
  Link C35 (2)
  
  
  *********************************
  Most Frequent Nonconverging Nodes
  *********************************
  Node J17 (1.02%)
  Node OF (1.02%)
  Node J10 (0.51%)
  Node J11 (0.51%)
  Node J2 (0.51%)
  
  
  *************************
  Routing Time Step Summary
  *************************
  Minimum Time Step           :     4.94 sec
  Average Time Step           :    15.30 sec
  Maximum Time Step           :   300.00 sec
  % of Time in Steady State   :     0.00
  Average Iterations per Step :     2.09
  % of Steps Not Converging   :     1.02
  Time Step Frequencies       :
     300.000 - 83.462 sec      :     0.51 %
     83.462 - 23.220 sec      :     0.00 %
     23.220 -  6.460 sec      :    98.46 %
      6.460 -  1.797 sec      :     1.03 %
      1.797 -  0.500 sec      :     0.00 %
  
  
  ***************************
  Subcatchment Runoff Summary
  ***************************
  
  ------------------------------------------------------------------------------------------------------------------------------
                            Total      Total      Total      Total     Imperv       Perv      Total       Total     Peak  Runoff
                           Precip      Runon       Evap      Infil     Runoff     Runoff     Runoff      Runoff   Runoff   Coeff
  Subcatchment                 mm         mm         mm         mm         mm         mm         mm    10^6 ltr      CMS
  ------------------------------------------------------------------------------------------------------------------------------
  S1                       850.16       0.00       0.00       0.00       8.42     841.74     850.16      214.46   186.90   1.000
  S2                       850.16       0.00       0.00       0.00       7.74     841.67     849.41        6.60     5.76   0.999
  S3                       850.16       0.00       0.00       0.00       7.74     842.42     850.16        1.76     1.53   1.000
  S4                       850.16       0.00       0.00       0.00       7.74     842.42     850.16        1.74     1.52   1.000
  S5                       850.16       0.00       0.00       0.00       7.74     842.42     850.16        2.54     2.22   1.000
  S6                       850.16       0.00       0.00       0.00       7.74     842.42     850.16        7.01     6.11   1.000
  S7                       850.16       0.00       0.00       0.00       7.74     842.42     850.16        1.32     1.15   1.000
  S8                       850.16       0.00       0.00       0.00       7.74     842.42     850.16        4.14     3.61   1.000
  S9                       850.16       0.00       0.00       0.00       7.74     842.42     850.16        5.12     4.46   1.000
  S10                      850.16       0.00       0.00       0.00       0.00     842.42     842.42        1.19     1.04   0.991
  S11                      850.16       0.00       0.00       0.00       7.74     783.05     790.79       11.57    10.77   0.930
  S12                      850.16       0.00       0.00       0.00       7.74     842.42     850.16        7.38     6.43   1.000
  S13                      850.16       0.00       0.00       0.00       0.00     842.42     842.42        7.11     6.20   0.991
  S14                      850.16       0.00       0.00       0.00       7.14     843.02     850.16        6.83     5.95   1.000
  S15                      850.16       0.00       0.00       0.00       7.14     843.02     850.16        6.38     5.56   1.000
  S16                      850.16       0.00       0.00       0.00       6.55     831.68     838.23       14.80    13.08   0.986
  S17                      850.16       0.00       0.00       0.00       6.55     696.83     703.37       23.95    23.97   0.827
  S18                      850.16       0.00       0.00       0.00       6.55     843.68     850.22        1.10     0.96   1.000
  S19                      850.16       0.00       0.00       0.00       6.55       0.00       6.55        0.02     0.01   0.008
  S20                      850.16       0.00       0.00       0.00       6.55     843.65     850.20        0.87     0.76   1.000
  S21                      850.16       0.00       0.00       0.00       6.55     810.92     817.47       13.55    12.26   0.962
  S22                      850.16       0.00       0.00       0.00       6.55     843.56     850.11        0.28     0.24   1.000
  S23                      850.16       0.00       0.00       0.00       6.55     843.61     850.16        0.33     0.29   1.000
  S24                      850.16       0.00       0.00       0.00       6.55     843.61     850.16        0.42     0.36   1.000
  S25                      850.16       0.00       0.00       0.00       6.55     843.61     850.16        0.50     0.44   1.000
  S26                      850.16       0.00       0.00       0.00       6.55     843.61     850.16        0.59     0.51   1.000
  S27                      850.16       0.00       0.00       0.00       6.55     844.08     850.63        7.07     6.16   1.001
  S28                      850.16       0.00       0.00       0.00       6.55     814.65     821.19        7.29     6.57   0.966
  S29                      850.16       0.00       0.00       0.00       6.55     843.62     850.17        0.78     0.68   1.000
  S30                      850.16       0.00       0.00       0.00       6.55     657.25     663.80       42.28    43.39   0.781
  S31                      850.16       0.00       0.00       0.00       6.80     843.36     850.16       11.52    10.04   1.000
  S32                      850.16       0.00       0.00       0.00       6.80     843.36     850.16        3.55     3.09   1.000
  S33                      850.16       0.00       0.00       0.00       7.99     842.17     850.16        2.64     2.30   1.000
  S34                      850.16       0.00       0.00       0.00       7.99     842.17     850.16        2.80     2.44   1.000
  S35                      850.16       0.00       0.00       0.00       7.74     842.42     850.16        3.42     2.98   1.000
  S36                      850.16       0.00       0.00       0.00       7.74     842.42     850.16        1.40     1.22   1.000
  S37                      850.16       0.00       0.00       0.00       7.74     842.42     850.16        3.06     2.67   1.000
  S38                      850.16       0.00       0.00       0.00       7.74     842.42     850.16        0.14     0.12   1.000
  S39                      850.16       0.00       0.00       0.00       7.74     842.42     850.16        3.49     3.04   1.000
  S40                      850.16       0.00       0.00       0.00       7.74     842.42     850.16        1.20     1.04   1.000
  S41                      850.16       0.00       0.00       0.00       7.74     842.42     850.16        1.93     1.68   1.000
  S42                      850.16       0.00       0.00       0.00       7.74     842.42     850.16        2.69     2.34   1.000
  S43                      850.16       0.00       0.00       0.00       7.74     842.42     850.16        6.12     5.33   1.000
  S44                      850.16       0.00       0.00       0.00       7.74     842.42     850.16        4.44     3.87   1.000
  S45                      850.16       0.00       0.00       0.00       7.74     842.42     850.16        0.45     0.39   1.000
  S46                      850.16       0.00       0.00       0.00       7.74     842.42     850.16        4.11     3.59   1.000
  S47                      850.16       0.00       0.00       0.00       7.74     842.42     850.16        8.31     7.25   1.000
  S48                      850.16       0.00       0.00       0.00       7.74     842.42     850.16        9.61     8.37   1.000
  S49                      850.16       0.00       0.00       0.00       7.74     842.42     850.16        5.84     5.09   1.000
  S50                      850.16       0.00       0.00       0.00       7.74     842.42     850.16        4.81     4.19   1.000
  S51                      850.16       0.00       0.00       0.00       7.74     842.42     850.16        2.84     2.47   1.000
  S52                      850.16       0.00       0.00       0.00       7.74     842.42     850.16        7.52     6.56   1.000
  S53                      850.16       0.00       0.00       0.00       7.74     814.99     822.73       10.02     9.01   0.968
  S54                      850.16       0.00       0.00       0.00       7.74     840.04     847.78        3.87     3.39   0.997
  S55                      850.16       0.00       0.00       0.00       7.74     842.42     850.16        0.32     0.28   1.000
  S56                      850.16       0.00       0.00       0.00       7.74     842.41     850.14        0.32     0.28   1.000
  S57                      850.16       0.00       0.00       0.00       7.74     842.42     850.16        4.40     3.83   1.000
  S58                      850.16       0.00       0.00       0.00       7.74     842.42     850.16        5.65     4.92   1.000
  S59                      850.16       0.00       0.00       0.00       7.74     842.42     850.16        5.48     4.78   1.000
  S60                      850.16       0.00       0.00       0.00       6.55     843.44     849.98        3.34     2.91   1.000
  S61                      850.16       0.00       0.00       0.00       6.55       0.00       6.55        0.02     0.02   0.008
  S62                      850.16       0.00       0.00       0.00       6.55     630.06     636.61       34.12    35.54   0.749
  S63                      850.16       0.00       0.00       0.00       6.55     843.61     850.16        7.99     6.96   1.000
  S64                      850.16       0.00       0.00       0.00       6.55     843.61     850.16       21.64    18.86   1.000
  S65                      850.16       0.00       0.00       0.00       6.55     843.61     850.16        3.45     3.01   1.000
  S66                      850.16       0.00       0.00       0.00       6.55     843.61     850.16        5.57     4.85   1.000
  S67                      850.16       0.00       0.00       0.00       6.55     843.61     850.16       10.41     9.07   1.000
  S68                      850.16       0.00       0.00       0.00       6.55     843.61     850.16       12.20    10.63   1.000
  S69                      850.16       0.00       0.00       0.00       6.55       0.00       6.55        0.16     0.14   0.008
  S70                      850.16       0.00       0.00       0.00       6.55     809.20     815.75       21.35    19.35   0.960
  S71                      850.16       0.00       0.00       0.00       7.74     842.42     850.16       12.51    10.90   1.000
  S72                      850.16       0.00       0.00       0.00       6.55     834.58     841.13        4.17     3.67   0.989
  S73                      850.16       0.00       0.00       0.00       6.55     843.61     850.16       17.82    15.53   1.000
  S74                      850.16       0.00       0.00       0.00       6.55       0.00       6.55        0.04     0.04   0.008
  S75                      850.16       0.00       0.00       0.00       6.55     843.61     850.16        0.57     0.50   1.000
  S76                      850.16       0.00       0.00       0.00       6.55     843.61     850.16       11.23     9.79   1.000
  S77                      850.16       0.00       0.00       0.00       6.55     843.61     850.16        9.09     7.92   1.000
  S78                      850.16       0.00       0.00       0.00       6.55     843.61     850.16        6.59     5.74   1.000
  S79                      850.16       0.00       0.00       0.00       7.74     842.42     850.16        5.77     5.03   1.000
  S80                      850.16       0.00       0.00       0.00       6.55     844.08     850.63        2.35     2.04   1.001
  S81                      850.16       0.00       0.00       0.00       6.55     843.61     850.16        9.62     8.38   1.000
  S82                      850.16       0.00       0.00       0.00       6.55     843.61     850.16        9.39     8.18   1.000
  S83                      850.16       0.00       0.00       0.00       6.55     843.61     850.16        6.04     5.26   1.000
  S84                      850.16       0.00       0.00       0.00       7.74     842.42     850.16        3.94     3.44   1.000
  S85                      850.16       0.00       0.00       0.00       7.74     822.79     830.52       10.27     9.15   0.977
  S86                      850.16       0.00       0.00       0.00       0.00     842.42     842.42        9.75     8.49   0.991
  S87                      850.16       0.00       0.00       0.00       7.74     842.42     850.16       10.56     9.20   1.000
  S88                      850.16       0.00       0.00       0.00       7.74     842.42     850.16        1.90     1.66   1.000
  S89                      850.16       0.00       0.00       0.00       7.74     842.42     850.16        8.60     7.49   1.000
  S90                      850.16       0.00       0.00       0.00       0.00     842.42     842.42        4.14     3.60   0.991
  S91                      850.16       0.00       0.00       0.00       7.74     842.42     850.16        1.40     1.22   1.000
  
  
  ******************
  Node Depth Summary
  ******************
  
  ---------------------------------------------------------------------------------
                                 Average  Maximum  Maximum  Time of Max    Reported
                                   Depth    Depth      HGL   Occurrence   Max Depth
  Node                 Type       Meters   Meters   Meters  days hr:min      Meters
  ---------------------------------------------------------------------------------
  J7                   JUNCTION     2.49     2.50     2.50     0  00:05        2.50
  J13                  JUNCTION     2.49     2.50     2.50     0  00:05        2.50
  J19                  JUNCTION     2.49     2.50     2.50     0  00:05        2.50
  J25                  JUNCTION     2.49     2.50     2.50     0  00:05        2.50
  J1                   JUNCTION     2.49     2.50     2.50     0  00:05        2.50
  J2                   JUNCTION     2.49     2.50     2.50     0  00:05        2.50
  J3                   JUNCTION     2.49     2.50     2.50     0  00:05        2.50
  J4                   JUNCTION     2.49     2.50     2.50     0  00:05        2.50
  J5                   JUNCTION     2.49     2.50     2.50     0  00:05        2.50
  J6                   JUNCTION     2.49     2.50     2.50     0  00:05        2.50
  J8                   JUNCTION     2.49     2.50     2.50     0  00:05        2.50
  J9                   JUNCTION     2.49     2.50     2.50     0  00:05        2.50
  J10                  JUNCTION     2.49     2.50     2.50     0  00:05        2.50
  J11                  JUNCTION     2.49     2.50     2.50     0  00:05        2.50
  J12                  JUNCTION     2.49     2.50     2.50     0  00:05        2.50
  J14                  JUNCTION     2.49     2.50     2.50     0  00:05        2.50
  J15                  JUNCTION     2.49     2.50     2.50     0  00:05        2.50
  J16                  JUNCTION     2.49     2.50     2.50     0  00:05        2.50
  J17                  JUNCTION     2.49     2.50     2.50     0  00:05        2.50
  J18                  JUNCTION     2.49     2.50     2.50     0  00:05        2.50
  J20                  JUNCTION     2.49     2.50     2.50     0  00:05        2.50
  J21                  JUNCTION     2.49     2.50     2.50     0  00:05        2.50
  J22                  JUNCTION     2.49     2.50     2.50     0  00:05        2.50
  J23                  JUNCTION     2.49     2.50     2.50     0  00:05        2.50
  J24                  JUNCTION     2.49     2.50     2.50     0  00:05        2.50
  J26                  JUNCTION     2.49     2.50     2.50     0  00:05        2.50
  J27                  JUNCTION     2.49     2.50     2.50     0  00:05        2.50
  J29                  JUNCTION     2.49     2.50     2.50     0  00:05        2.50
  J30                  JUNCTION     2.49     2.50     2.50     0  00:05        2.50
  J31                  JUNCTION     2.49     2.50     2.50     0  00:05        2.50
  J33                  JUNCTION     2.49     2.50     2.50     0  00:05        2.50
  J32                  JUNCTION     2.49     2.50     2.50     0  00:05        2.50
  J28                  JUNCTION     2.49     2.50     2.50     0  00:05        2.50
  OF                   OUTFALL      1.36     1.41     1.41     0  00:05        1.37
  
  
  *******************
  Node Inflow Summary
  *******************
  
  -------------------------------------------------------------------------------------------------
                                  Maximum  Maximum                  Lateral       Total        Flow
                                  Lateral    Total  Time of Max      Inflow      Inflow     Balance
                                   Inflow   Inflow   Occurrence      Volume      Volume       Error
  Node                 Type           CMS      CMS  days hr:min    10^6 ltr    10^6 ltr     Percent
  -------------------------------------------------------------------------------------------------
  J7                   JUNCTION    47.637   47.637     0  00:49        39.9        39.9       1.738
  J13                  JUNCTION     4.226    4.232     0  00:49        4.13        4.14       1.754
  J19                  JUNCTION   200.309  200.309     0  00:49         198         198       2.869
  J25                  JUNCTION    23.884   24.098     0  00:49        20.1        21.3       1.584
  J1                   JUNCTION    16.815   16.815     0  00:45        16.6        16.6       1.948
  J2                   JUNCTION    12.633   12.918     0  00:45        12.5        15.1       4.025
  J3                   JUNCTION     0.563    3.500     0  00:05       0.556        2.93      -5.739
  J4                   JUNCTION    36.579   36.579     0  00:49        36.1        36.1       2.439
  J5                   JUNCTION    30.244   30.367     0  00:45        29.9        30.5       3.031
  J6                   JUNCTION    13.233   13.516     0  00:45        13.1        15.2       3.605
  J8                   JUNCTION    20.360   20.591     0  00:45        20.1        21.4       2.734
  J9                   JUNCTION     9.150    9.410     0  00:49         8.8          11       3.184
  J10                  JUNCTION    13.662   14.101     0  00:45        13.5        16.8       4.086
  J11                  JUNCTION    14.678   15.228     0  00:45        14.5        18.4       4.640
  J12                  JUNCTION    15.530   15.651     0  00:45        15.3          16       2.062
  J14                  JUNCTION    13.159   13.159     0  00:45          13          13       2.516
  J15                  JUNCTION    18.819   19.057     0  00:49        18.3        19.8       2.907
  J16                  JUNCTION    10.899   11.081     0  00:45        10.8        11.5       1.797
  J17                  JUNCTION     0.142    2.356     0  00:05        0.14        1.92     -18.598
  J18                  JUNCTION     0.496    1.382     0  00:05       0.491        1.55       9.430
  J20                  JUNCTION    36.725   36.725     0  00:49        35.5        35.5       3.033
  J21                  JUNCTION    12.146   12.146     0  00:45          12          12       2.762
  J22                  JUNCTION    24.896   24.984     0  00:49        23.7        24.1       2.075
  J23                  JUNCTION    13.080   13.487     0  00:49        12.7        16.7       5.080
  J24                  JUNCTION     1.725    1.870     0  00:45         1.7        2.74       7.117
  J26                  JUNCTION    10.728   10.851     0  00:45        10.6        11.3       2.958
  J27                  JUNCTION     9.409    9.854     0  00:45        9.29        13.4       6.088
  J29                  JUNCTION    15.433   15.877     0  00:45        15.2        18.8       4.140
  J30                  JUNCTION     0.000    1.754     0  00:05           0        1.64      -9.618
  J31                  JUNCTION    43.207   43.207     0  00:49        35.2        35.2       1.550
  J33                  JUNCTION    15.185   15.185     0  00:49          15          15       3.265
  J32                  JUNCTION     6.928    7.064     0  00:45        6.85         7.7       2.265
  J28                  JUNCTION    11.077   11.161     0  00:45        10.9        11.2       1.100
  OF                   OUTFALL      0.000    7.967     0  00:05           0          21       0.000
  
  
  **********************
  Node Surcharge Summary
  **********************
  
  Surcharging occurs when water rises above the top of the highest conduit.
  ---------------------------------------------------------------------
                                               Max. Height   Min. Depth
                                   Hours       Above Crown    Below Rim
  Node                 Type      Surcharged         Meters       Meters
  ---------------------------------------------------------------------
  J7                   JUNCTION        0.83          0.850        0.000
  J13                  JUNCTION        0.83          0.850        0.000
  J19                  JUNCTION        0.83          0.850        0.000
  J25                  JUNCTION        0.83          0.850        0.000
  J1                   JUNCTION        0.83          0.850        0.000
  J2                   JUNCTION        0.83          0.850        0.000
  J3                   JUNCTION        0.83          0.850        0.000
  J4                   JUNCTION        0.83          0.850        0.000
  J5                   JUNCTION        0.83          0.850        0.000
  J6                   JUNCTION        0.83          0.850        0.000
  J8                   JUNCTION        0.83          0.850        0.000
  J9                   JUNCTION        0.83          0.850        0.000
  J10                  JUNCTION        0.83          0.850        0.000
  J11                  JUNCTION        0.83          0.850        0.000
  J12                  JUNCTION        0.83          0.850        0.000
  J14                  JUNCTION        0.83          0.850        0.000
  J15                  JUNCTION        0.83          0.850        0.000
  J16                  JUNCTION        0.83          0.850        0.000
  J17                  JUNCTION        0.83          0.850        0.000
  J18                  JUNCTION        0.83          0.850        0.000
  J20                  JUNCTION        0.83          0.850        0.000
  J21                  JUNCTION        0.83          0.850        0.000
  J22                  JUNCTION        0.83          0.850        0.000
  J23                  JUNCTION        0.83          0.850        0.000
  J24                  JUNCTION        0.83          0.850        0.000
  J26                  JUNCTION        0.83          0.850        0.000
  J27                  JUNCTION        0.83          0.850        0.000
  J29                  JUNCTION        0.83          0.850        0.000
  J30                  JUNCTION        0.83          0.850        0.000
  J31                  JUNCTION        0.83          0.850        0.000
  J33                  JUNCTION        0.83          0.850        0.000
  J32                  JUNCTION        0.83          0.850        0.000
  J28                  JUNCTION        0.83          0.850        0.000
  
  
  *********************
  Node Flooding Summary
  *********************
  
  Flooding refers to all water that overflows a node, whether it ponds or not.
  --------------------------------------------------------------------------
                                                             Total   Maximum
                                 Maximum   Time of Max       Flood    Ponded
                        Hours       Rate    Occurrence      Volume     Depth
  Node                 Flooded       CMS   days hr:min    10^6 ltr    Meters
  --------------------------------------------------------------------------
  J7                      0.83    47.313      0  00:49      38.879     0.000
  J13                     0.82     4.110      0  00:49       3.338     0.000
  J19                     0.83   192.816      0  00:49     175.320     0.000
  J25                     0.83    23.872      0  00:49      20.131     0.000
  J1                      0.83    16.475      0  00:49      14.077     0.000
  J2                      0.83    12.770      0  00:45      13.970     0.000
  J3                      0.75     0.837      0  00:07       1.199     0.000
  J4                      0.83    36.176      0  00:49      32.647     0.000
  J5                      0.83    30.111      0  00:49      28.875     0.000
  J6                      0.83    13.271      0  00:45      13.904     0.000
  J8                      0.83    20.438      0  00:45      19.983     0.000
  J9                      0.83     9.193      0  00:49       9.638     0.000
  J10                     0.83    13.969      0  00:45      16.018     0.000
  J11                     0.83    15.227      0  00:45      18.416     0.000
  J12                     0.83    15.370      0  00:49      13.660     0.000
  J14                     0.83    12.918      0  00:49      11.454     0.000
  J15                     0.83    18.845      0  00:49      18.584     0.000
  J16                     0.83    10.799      0  00:49       9.179     0.000
  J17                     0.67     0.334      0  00:05       0.164     0.000
  J18                     0.61     0.499      0  00:05       0.306     0.000
  J20                     0.83    36.708      0  00:49      35.499     0.000
  J21                     0.83    11.939      0  00:49      10.869     0.000
  J22                     0.83    24.741      0  00:49      22.328     0.000
  J23                     0.83    13.484      0  00:49      16.711     0.000
  J24                     0.75     1.743      0  00:45       1.868     0.000
  J26                     0.83    10.717      0  00:49      10.457     0.000
  J27                     0.83     9.853      0  00:45      13.409     0.000
  J29                     0.83    15.731      0  00:45      17.747     0.000
  J30                     0.75     0.503      0  00:05       0.587     0.000
  J31                     0.83    42.876      0  00:49      34.180     0.000
  J33                     0.83    15.185      0  00:49      14.998     0.000
  J32                     0.83     6.918      0  00:49       6.528     0.000
  J28                     0.82    10.912      0  00:49       8.810     0.000
  
  
  ***********************
  Outfall Loading Summary
  ***********************
  
  -----------------------------------------------------------
                         Flow       Avg       Max       Total
                         Freq      Flow      Flow      Volume
  Outfall Node           Pcnt       CMS       CMS    10^6 ltr
  -----------------------------------------------------------
  OF                   100.00     7.321     7.967      21.044
  -----------------------------------------------------------
  System               100.00     7.321     7.967      21.044
  
  
  ********************
  Link Flow Summary
  ********************
  
  -----------------------------------------------------------------------------
                                 Maximum  Time of Max   Maximum    Max/    Max/
                                  |Flow|   Occurrence   |Veloc|    Full    Full
  Link                 Type          CMS  days hr:min     m/sec    Flow   Depth
  -----------------------------------------------------------------------------
  P1                   PUMP        0.000     0  00:00                          
  C23                  CONDUIT     0.748     0  00:05      0.35    6.51    1.00
  C24                  CONDUIT     1.252     0  00:05      0.59   10.84    1.00
  C25                  CONDUIT     1.382     0  00:05      0.65   11.04    1.00
  C26                  CONDUIT     0.628     0  00:05      0.29    4.92    1.00
  C27                  CONDUIT     1.984     0  00:05      0.93   16.32    1.00
  C28                  CONDUIT     0.137     0  00:15      0.06    0.94    1.00
  C29                  CONDUIT     2.055     0  00:05      0.96   14.47    1.00
  C30                  CONDUIT     1.164     0  00:05      0.54   10.22    1.00
  C31                  CONDUIT     1.230     0  00:05      0.58   10.76    1.00
  C32                  CONDUIT     1.532     0  00:05      0.72    9.90    1.00
  C33                  CONDUIT     1.775     0  00:05      0.83   10.39    1.00
  C34                  CONDUIT     0.000     0  00:05      0.00    0.00    1.00
  C35                  CONDUIT     0.484     0  00:05      0.23    5.15    1.00
  C36                  CONDUIT     0.463     0  00:05      0.22    4.37    1.00
  C37                  CONDUIT     1.933     0  00:05      0.90   13.27    1.00
  C38                  CONDUIT     1.381     0  00:05      0.65    9.63    1.00
  C39                  CONDUIT     4.059     0  00:05      1.90   25.73    1.00
  C40                  CONDUIT     0.607     0  00:05      0.28    4.33    1.00
  C41                  CONDUIT     0.786     0  00:05      0.37    6.10    1.00
  C43                  CONDUIT     0.000     0  00:05      0.00    0.00    1.00
  C44                  CONDUIT     1.435     0  00:05      0.67   12.25    1.00
  C45                  CONDUIT     0.486     0  00:05      0.23    4.17    1.00
  C46                  CONDUIT     1.268     0  00:05      0.59   10.51    1.00
  C48                  CONDUIT     1.827     0  00:05      0.85   14.43    1.00
  C42                  CONDUIT     1.956     0  00:05      0.91   15.51    1.00
  C50                  CONDUIT     1.453     0  00:05      0.68   14.04    1.00
  C49                  CONDUIT     1.204     0  00:05      0.56   10.51    1.00
  C01                  CONDUIT     0.000     0  00:00      0.00    0.00    1.00
  C02                  CONDUIT     0.222     0  00:05      0.10    1.76    1.00
  C03                  CONDUIT     2.119     0  00:05      0.99   16.93    1.00
  C04                  CONDUIT     1.544     0  00:05      0.72   12.14    1.00
  C05                  CONDUIT     0.571     0  00:05      0.27    4.55    1.00
  C06                  CONDUIT     0.000     0  00:00      0.00    0.00    1.00
  C07                  CONDUIT     0.597     0  00:05      0.28    5.24    1.00
  C08                  CONDUIT     0.656     0  00:05      0.31    5.37    1.00
  C09                  CONDUIT     0.211     0  00:05      0.10    1.84    1.00
  C10                  CONDUIT     0.190     0  00:05      0.09    1.51    1.00
  C11                  CONDUIT     0.657     0  00:05      0.31    5.77    1.00
  C12                  CONDUIT     2.482     0  00:05      1.16   21.38    1.00
  C13                  CONDUIT     0.514     0  00:05      0.24    4.47    1.00
  C14                  CONDUIT     1.819     0  00:05      0.85   14.45    1.00
  C15                  CONDUIT     0.509     0  00:05      0.24    4.05    1.00
  C16                  CONDUIT     1.112     0  00:05      0.52    9.76    1.00
  C17                  CONDUIT     1.265     0  00:05      0.59   11.17    1.00
  C18                  CONDUIT     0.298     0  00:05      0.14    2.65    1.00
  C19                  CONDUIT     0.006     0  00:20      0.00    0.04    1.00
  C20                  CONDUIT     0.986     0  00:05      0.46    8.78    1.00
  C21                  CONDUIT     0.706     0  00:05      0.33    6.67    1.00
  C22                  CONDUIT     1.792     0  00:05      0.84   14.14    1.00
  C47                  CONDUIT     0.000     0  00:05      0.00    0.00    1.00
  Cout                 CONDUIT     7.967     0  00:05      3.85   62.91    0.93
  
  
  ***************************
  Flow Classification Summary
  ***************************
  
  -------------------------------------------------------------------------------------
                      Adjusted    ---------- Fraction of Time in Flow Class ---------- 
                       /Actual         Up    Down  Sub   Sup   Up    Down  Norm  Inlet 
  Conduit               Length    Dry  Dry   Dry   Crit  Crit  Crit  Crit  Ltd   Ctrl  
  -------------------------------------------------------------------------------------
  C23                     1.00   0.00  0.00  0.00  1.00  0.00  0.00  0.00  0.00  0.00
  C24                     1.00   0.00  0.00  0.00  1.00  0.00  0.00  0.00  0.00  0.00
  C25                     1.00   0.00  0.00  0.00  1.00  0.00  0.00  0.00  0.00  0.00
  C26                     1.00   0.00  0.00  0.00  1.00  0.00  0.00  0.00  0.00  0.00
  C27                     1.00   0.00  0.00  0.00  1.00  0.00  0.00  0.00  0.00  0.00
  C28                     1.00   0.00  0.00  0.00  1.00  0.00  0.00  0.00  0.00  0.00
  C29                     1.00   0.00  0.00  0.00  1.00  0.00  0.00  0.00  0.00  0.00
  C30                     1.00   0.00  0.00  0.00  1.00  0.00  0.00  0.00  0.00  0.00
  C31                     1.00   0.00  0.00  0.00  1.00  0.00  0.00  0.00  0.00  0.00
  C32                     1.00   0.00  0.00  0.00  1.00  0.00  0.00  0.00  0.00  0.00
  C33                     1.00   0.00  0.00  0.00  1.00  0.00  0.00  0.00  0.00  0.00
  C34                     1.00   0.00  0.00  0.00  1.00  0.00  0.00  0.00  0.00  0.00
  C35                     1.00   0.00  0.00  0.00  1.00  0.00  0.00  0.00  0.00  0.00
  C36                     1.00   0.00  0.00  0.00  1.00  0.00  0.00  0.00  0.00  0.00
  C37                     1.00   0.00  0.00  0.00  1.00  0.00  0.00  0.00  0.00  0.00
  C38                     1.00   0.00  0.00  0.00  1.00  0.00  0.00  0.00  0.00  0.00
  C39                     1.00   0.00  0.00  0.00  1.00  0.00  0.00  0.00  0.00  0.00
  C40                     1.00   0.00  0.00  0.00  1.00  0.00  0.00  0.00  0.00  0.00
  C41                     1.00   0.00  0.00  0.00  1.00  0.00  0.00  0.00  0.00  0.00
  C43                     1.00   0.00  0.00  0.00  1.00  0.00  0.00  0.00  0.00  0.00
  C44                     1.00   0.00  0.00  0.00  1.00  0.00  0.00  0.00  0.00  0.00
  C45                     1.00   0.00  0.00  0.00  1.00  0.00  0.00  0.00  0.00  0.00
  C46                     1.00   0.00  0.00  0.00  1.00  0.00  0.00  0.00  0.00  0.00
  C48                     1.00   0.00  0.00  0.00  1.00  0.00  0.00  0.00  0.00  0.00
  C42                     1.00   0.00  0.00  0.00  1.00  0.00  0.00  0.00  0.00  0.00
  C50                     1.00   0.00  0.00  0.00  1.00  0.00  0.00  0.00  0.00  0.00
  C49                     1.00   0.00  0.00  0.00  1.00  0.00  0.00  0.00  0.00  0.00
  C01                     1.00   0.00  0.00  0.00  1.00  0.00  0.00  0.00  0.00  0.00
  C02                     1.00   0.00  0.00  0.00  1.00  0.00  0.00  0.00  0.00  0.00
  C03                     1.00   0.00  0.00  0.00  1.00  0.00  0.00  0.00  0.00  0.00
  C04                     1.00   0.00  0.00  0.00  1.00  0.00  0.00  0.00  0.00  0.00
  C05                     1.00   0.00  0.00  0.00  1.00  0.00  0.00  0.00  0.00  0.00
  C06                     1.00   0.00  0.00  0.00  1.00  0.00  0.00  0.00  0.00  0.00
  C07                     1.00   0.00  0.00  0.00  1.00  0.00  0.00  0.00  0.00  0.00
  C08                     1.00   0.00  0.00  0.00  1.00  0.00  0.00  0.00  0.00  0.00
  C09                     1.00   0.00  0.00  0.00  1.00  0.00  0.00  0.00  0.00  0.00
  C10                     1.00   0.00  0.00  0.00  1.00  0.00  0.00  0.00  0.00  0.00
  C11                     1.00   0.00  0.00  0.00  1.00  0.00  0.00  0.00  0.00  0.00
  C12                     1.00   0.00  0.00  0.00  1.00  0.00  0.00  0.00  0.00  0.00
  C13                     1.00   0.00  0.00  0.00  1.00  0.00  0.00  0.00  0.00  0.00
  C14                     1.00   0.00  0.00  0.00  1.00  0.00  0.00  0.00  0.00  0.00
  C15                     1.00   0.00  0.00  0.00  1.00  0.00  0.00  0.00  0.00  0.00
  C16                     1.00   0.00  0.00  0.00  1.00  0.00  0.00  0.00  0.00  0.00
  C17                     1.00   0.00  0.00  0.00  1.00  0.00  0.00  0.00  0.00  0.00
  C18                     1.00   0.00  0.00  0.00  1.00  0.00  0.00  0.00  0.00  0.00
  C19                     1.00   0.00  0.00  0.00  1.00  0.00  0.00  0.00  0.00  0.00
  C20                     1.00   0.00  0.00  0.00  1.00  0.00  0.00  0.00  0.00  0.00
  C21                     1.00   0.00  0.00  0.00  1.00  0.00  0.00  0.00  0.00  0.00
  C22                     1.00   0.00  0.00  0.00  1.00  0.00  0.00  0.00  0.00  0.00
  C47                     1.00   0.00  0.00  0.00  1.00  0.00  0.00  0.00  0.00  0.00
  Cout                    1.00   0.00  0.00  0.00  1.00  0.00  0.00  0.00  0.00  0.00
  
  
  *************************
  Conduit Surcharge Summary
  *************************
  
  ----------------------------------------------------------------------------
                                                           Hours        Hours 
                         --------- Hours Full --------   Above Full   Capacity
  Conduit                Both Ends  Upstream  Dnstream   Normal Flow   Limited
  ----------------------------------------------------------------------------
  C23                         0.83      0.83      0.83      0.83         0.01
  C24                         0.83      0.83      0.83      0.83         0.01
  C25                         0.83      0.83      0.83      0.83         0.01
  C26                         0.83      0.83      0.83      0.77         0.01
  C27                         0.83      0.83      0.83      0.83         0.01
  C28                         0.83      0.83      0.83      0.01         0.01
  C29                         0.83      0.83      0.83      0.79         0.01
  C30                         0.83      0.83      0.83      0.83         0.01
  C31                         0.83      0.83      0.83      0.83         0.01
  C32                         0.83      0.83      0.83      0.63         0.09
  C33                         0.83      0.83      0.83      0.67         0.01
  C34                         0.83      0.83      0.83      0.01         0.01
  C35                         0.83      0.83      0.83      0.83         0.01
  C36                         0.83      0.83      0.83      0.83         0.01
  C37                         0.83      0.83      0.83      0.70         0.01
  C38                         0.83      0.83      0.83      0.77         0.01
  C39                         0.83      0.83      0.83      0.75         0.09
  C40                         0.83      0.83      0.83      0.64         0.01
  C41                         0.83      0.83      0.83      0.80         0.01
  C43                         0.83      0.83      0.83      0.01         0.01
  C44                         0.83      0.83      0.83      0.83         0.01
  C45                         0.83      0.83      0.83      0.72         0.09
  C46                         0.83      0.83      0.83      0.83         0.01
  C48                         0.83      0.83      0.83      0.83         0.01
  C42                         0.83      0.83      0.83      0.83         0.09
  C50                         0.83      0.83      0.83      0.83         0.01
  C49                         0.83      0.83      0.83      0.83         0.01
  C01                         0.83      0.83      0.83      0.01         0.01
  C02                         0.83      0.83      0.83      0.46         0.01
  C03                         0.83      0.83      0.83      0.83         0.01
  C04                         0.83      0.83      0.83      0.83         0.01
  C05                         0.83      0.83      0.83      0.76         0.08
  C06                         0.83      0.83      0.83      0.01         0.01
  C07                         0.83      0.83      0.83      0.83         0.01
  C08                         0.83      0.83      0.83      0.82         0.01
  C09                         0.83      0.83      0.83      0.53         0.01
  C10                         0.83      0.83      0.83      0.39         0.01
  C11                         0.83      0.83      0.83      0.83         0.01
  C12                         0.83      0.83      0.83      0.83         0.10
  C13                         0.83      0.83      0.83      0.67         0.22
  C14                         0.83      0.83      0.83      0.83         0.09
  C15                         0.83      0.83      0.83      0.64         0.11
  C16                         0.83      0.83      0.83      0.83         0.01
  C17                         0.83      0.83      0.83      0.82         0.01
  C18                         0.83      0.83      0.83      0.62         0.01
  C19                         0.83      0.83      0.83      0.01         0.01
  C20                         0.83      0.83      0.83      0.83         0.01
  C21                         0.83      0.83      0.83      0.83         0.01
  C22                         0.83      0.83      0.83      0.83         0.01
  C47                         0.83      0.83      0.83      0.01         0.01
  Cout                        0.01      0.83      0.01      0.83         0.01
  
  
  ***************
  Pumping Summary
  ***************
  
  ---------------------------------------------------------------------------------------------------------
                                                  Min       Avg       Max     Total     Power    % Time Off
                        Percent   Number of      Flow      Flow      Flow    Volume     Usage    Pump Curve
  Pump                 Utilized   Start-Ups       CMS       CMS       CMS  10^6 ltr     Kw-hr    Low   High
  ---------------------------------------------------------------------------------------------------------
  P1                       0.00           0      0.00      0.00      0.00     0.000      0.00    0.0    0.0
  

  Analysis begun on:  Mon Nov 25 15:13:49 2024
  Analysis ended on:  Mon Nov 25 15:13:49 2024
  Total elapsed time: < 1 sec