
  EPA STORM WATER MANAGEMENT MODEL - VERSION 5.2 (Build 5.2.4)
  PYSWMM TOOLKIT API - VERSION v1.0 (2023-11-27)
  ------------------------------------------------------------

  WARNING 04: minimum elevation drop used for Conduit C23
  WARNING 04: minimum elevation drop used for Conduit C24
  WARNING 04: minimum elevation drop used for Conduit C25
  WARNING 04: minimum elevation drop used for Conduit C26
  WARNING 04: minimum elevation drop used for Conduit C27
  WARNING 04: minimum elevation drop used for Conduit C28
  WARNING 04: minimum elevation drop used for Conduit C29
  WARNING 04: minimum elevation drop used for Conduit C30
  WARNING 04: minimum elevation drop used for Conduit C31
  WARNING 04: minimum elevation drop used for Conduit C32
  WARNING 04: minimum elevation drop used for Conduit C33
  WARNING 04: minimum elevation drop used for Conduit C34
  WARNING 04: minimum elevation drop used for Conduit C35
  WARNING 04: minimum elevation drop used for Conduit C36
  WARNING 04: minimum elevation drop used for Conduit C37
  WARNING 04: minimum elevation drop used for Conduit C38
  WARNING 04: minimum elevation drop used for Conduit C39
  WARNING 04: minimum elevation drop used for Conduit C40
  WARNING 04: minimum elevation drop used for Conduit C41
  WARNING 04: minimum elevation drop used for Conduit C43
  WARNING 04: minimum elevation drop used for Conduit C44
  WARNING 04: minimum elevation drop used for Conduit C45
  WARNING 04: minimum elevation drop used for Conduit C46
  WARNING 04: minimum elevation drop used for Conduit C48
  WARNING 04: minimum elevation drop used for Conduit C42
  WARNING 04: minimum elevation drop used for Conduit C50
  WARNING 04: minimum elevation drop used for Conduit C49
  WARNING 04: minimum elevation drop used for Conduit C01
  WARNING 04: minimum elevation drop used for Conduit C02
  WARNING 04: minimum elevation drop used for Conduit C03
  WARNING 04: minimum elevation drop used for Conduit C04
  WARNING 04: minimum elevation drop used for Conduit C05
  WARNING 04: minimum elevation drop used for Conduit C06
  WARNING 04: minimum elevation drop used for Conduit C07
  WARNING 04: minimum elevation drop used for Conduit C08
  WARNING 04: minimum elevation drop used for Conduit C09
  WARNING 04: minimum elevation drop used for Conduit C10
  WARNING 04: minimum elevation drop used for Conduit C11
  WARNING 04: minimum elevation drop used for Conduit C12
  WARNING 04: minimum elevation drop used for Conduit C13
  WARNING 04: minimum elevation drop used for Conduit C14
  WARNING 04: minimum elevation drop used for Conduit C15
  WARNING 04: minimum elevation drop used for Conduit C16
  WARNING 04: minimum elevation drop used for Conduit C17
  WARNING 04: minimum elevation drop used for Conduit C18
  WARNING 04: minimum elevation drop used for Conduit C19
  WARNING 04: minimum elevation drop used for Conduit C20
  WARNING 04: minimum elevation drop used for Conduit C21
  WARNING 04: minimum elevation drop used for Conduit C22
  WARNING 04: minimum elevation drop used for Conduit C47
  WARNING 04: minimum elevation drop used for Conduit Cout
  
  ****************
  Analysis Options
  ****************
  Flow Units ............... CMS
  Process Models:
    Rainfall/Runoff ........ YES
    RDII ................... NO
    Snowmelt ............... NO
    Groundwater ............ NO
    Flow Routing ........... YES
    Ponding Allowed ........ NO
    Water Quality .......... NO
  Infiltration Method ...... HORTON
  Flow Routing Method ...... DYNWAVE
  Surcharge Method ......... EXTRAN
  Starting Date ............ 10/02/2022 12:00:00
  Ending Date .............. 10/02/2022 12:50:00
  Antecedent Dry Days ...... 0.0
  Report Time Step ......... 00:10:00
  Wet Time Step ............ 00:05:00
  Dry Time Step ............ 01:00:00
  Routing Time Step ........ 300.00 sec
  Variable Time Step ....... YES
  Maximum Trials ........... 8
  Number of Threads ........ 1
  Head Tolerance ........... 0.001524 m
  
  
  *********************
  Rainfall File Summary
  *********************
  Station    First        Last         Recording   Periods    Periods    Periods
  ID         Date         Date         Frequency  w/Precip    Missing    Malfunc.
  -------------------------------------------------------------------------------
  155        10/02/2022   10/02/2022      10 min         6          0          0

  
  
  **************************        Volume         Depth
  Runoff Quantity Continuity     hectare-m            mm
  **************************     ---------       -------
  Total Precipitation ......       171.426      1714.331
  Evaporation Loss .........         0.000         0.000
  Infiltration Loss ........         0.000         0.000
  Surface Runoff ...........       163.407      1634.131
  Final Storage ............         9.363        93.630
  Continuity Error (%) .....        -0.783
  
  
  **************************        Volume        Volume
  Flow Routing Continuity        hectare-m      10^6 ltr
  **************************     ---------     ---------
  Dry Weather Inflow .......         0.000         0.000
  Wet Weather Inflow .......       160.867      1608.689
  Groundwater Inflow .......         0.000         0.000
  RDII Inflow ..............         0.000         0.000
  External Inflow ..........         0.000         0.000
  External Outflow .........         2.104        21.044
  Flooding Loss ............       156.667      1566.690
  Evaporation Loss .........         0.000         0.000
  Exfiltration Loss ........         0.000         0.000
  Initial Stored Volume ....         0.046         0.463
  Final Stored Volume ......         1.883        18.831
  Continuity Error (%) .....         0.161
  
  
  *************************
  Highest Continuity Errors
  *************************
  Node J30 (10.17%)
  Node J3 (7.80%)
  Node J18 (7.33%)
  Node J17 (3.47%)
  Node J24 (3.27%)
  
  
  ***************************
  Time-Step Critical Elements
  ***************************
  Link Cout (98.98%)
  
  
  ********************************
  Highest Flow Instability Indexes
  ********************************
  Link C24 (2)
  Link C25 (2)
  Link C31 (2)
  Link C33 (2)
  Link C34 (2)
  
  
  *********************************
  Most Frequent Nonconverging Nodes
  *********************************
  Node J18 (0.51%)
  Node J24 (0.51%)
  Node OF (0.51%)
  
  
  *************************
  Routing Time Step Summary
  *************************
  Minimum Time Step           :     4.92 sec
  Average Time Step           :    15.30 sec
  Maximum Time Step           :   300.00 sec
  % of Time in Steady State   :     0.00
  Average Iterations per Step :     2.03
  % of Steps Not Converging   :     0.51
  Time Step Frequencies       :
     300.000 - 83.462 sec      :     0.51 %
     83.462 - 23.220 sec      :     0.00 %
     23.220 -  6.460 sec      :    98.46 %
      6.460 -  1.797 sec      :     1.03 %
      1.797 -  0.500 sec      :     0.00 %
  
  
  ***************************
  Subcatchment Runoff Summary
  ***************************
  
  ------------------------------------------------------------------------------------------------------------------------------
                            Total      Total      Total      Total     Imperv       Perv      Total       Total     Peak  Runoff
                           Precip      Runon       Evap      Infil     Runoff     Runoff     Runoff      Runoff   Runoff   Coeff
  Subcatchment                 mm         mm         mm         mm         mm         mm         mm    10^6 ltr      CMS
  ------------------------------------------------------------------------------------------------------------------------------
  S1                      1714.33       0.00       0.00       0.00      16.97    1697.36    1714.33      432.46   272.35   1.000
  S2                      1714.33       0.00       0.00       0.00      15.60    1699.55    1715.16       13.33     8.39   1.000
  S3                      1714.33       0.00       0.00       0.00      15.60    1698.73    1714.33        3.55     2.23   1.000
  S4                      1714.33       0.00       0.00       0.00      15.60    1698.73    1714.33        3.51     2.21   1.000
  S5                      1714.33       0.00       0.00       0.00      15.60    1698.73    1714.33        5.13     3.23   1.000
  S6                      1714.33       0.00       0.00       0.00      15.60    1698.73    1714.33       14.13     8.90   1.000
  S7                      1714.33       0.00       0.00       0.00      15.60    1698.73    1714.33        2.66     1.67   1.000
  S8                      1714.33       0.00       0.00       0.00      15.60    1698.73    1714.33        8.35     5.26   1.000
  S9                      1714.33       0.00       0.00       0.00      15.60    1698.73    1714.33       10.32     6.50   1.000
  S10                     1714.33       0.00       0.00       0.00       0.00    1698.73    1698.73        2.40     1.51   0.991
  S11                     1714.33       0.00       0.00       0.00      15.60    1678.77    1694.37       24.79    15.74   0.988
  S12                     1714.33       0.00       0.00       0.00      15.60    1698.73    1714.33       14.88     9.37   1.000
  S13                     1714.33       0.00       0.00       0.00       0.00    1698.73    1698.73       14.34     9.03   0.991
  S14                     1714.33       0.00       0.00       0.00      14.40    1699.93    1714.33       13.77     8.67   1.000
  S15                     1714.33       0.00       0.00       0.00      14.40    1699.93    1714.33       12.86     8.10   1.000
  S16                     1714.33       0.00       0.00       0.00      13.20    1700.74    1713.94       30.27    19.07   1.000
  S17                     1714.33       0.00       0.00       0.00      13.20    1627.13    1640.33       55.85    35.34   0.957
  S18                     1714.33       0.00       0.00       0.00      13.20    1701.09    1714.29        2.21     1.39   1.000
  S19                     1714.33       0.00       0.00       0.00      13.20       0.00      13.20        0.03     0.02   0.008
  S20                     1714.33       0.00       0.00       0.00      13.20    1701.02    1714.22        1.75     1.10   1.000
  S21                     1714.33       0.00       0.00       0.00      13.20    1693.68    1706.88       28.30    17.89   0.996
  S22                     1714.33       0.00       0.00       0.00      13.20    1701.07    1714.27        0.57     0.36   1.000
  S23                     1714.33       0.00       0.00       0.00      13.20    1701.13    1714.33        0.67     0.42   1.000
  S24                     1714.33       0.00       0.00       0.00      13.20    1701.13    1714.33        0.84     0.53   1.000
  S25                     1714.33       0.00       0.00       0.00      13.20    1701.13    1714.33        1.01     0.64   1.000
  S26                     1714.33       0.00       0.00       0.00      13.20    1701.13    1714.33        1.18     0.74   1.000
  S27                     1714.33       0.00       0.00       0.00      13.20    1701.38    1714.58       14.25     8.97   1.000
  S28                     1714.33       0.00       0.00       0.00      13.20    1695.18    1708.38       15.17     9.58   0.997
  S29                     1714.33       0.00       0.00       0.00      13.20    1701.09    1714.29        1.58     0.99   1.000
  S30                     1714.33       0.00       0.00       0.00      13.20    1597.39    1610.59      102.59    63.99   0.939
  S31                     1714.33       0.00       0.00       0.00      13.71    1700.62    1714.33       23.23    14.63   1.000
  S32                     1714.33       0.00       0.00       0.00      13.71    1700.62    1714.33        7.15     4.50   1.000
  S33                     1714.33       0.00       0.00       0.00      16.11    1698.22    1714.33        5.33     3.36   1.000
  S34                     1714.33       0.00       0.00       0.00      16.11    1698.22    1714.33        5.64     3.55   1.000
  S35                     1714.33       0.00       0.00       0.00      15.60    1698.73    1714.33        6.89     4.34   1.000
  S36                     1714.33       0.00       0.00       0.00      15.60    1698.73    1714.33        2.83     1.78   1.000
  S37                     1714.33       0.00       0.00       0.00      15.60    1698.73    1714.33        6.17     3.89   1.000
  S38                     1714.33       0.00       0.00       0.00      15.60    1698.73    1714.33        0.27     0.17   1.000
  S39                     1714.33       0.00       0.00       0.00      15.60    1698.73    1714.33        7.03     4.43   1.000
  S40                     1714.33       0.00       0.00       0.00      15.60    1698.73    1714.33        2.42     1.52   1.000
  S41                     1714.33       0.00       0.00       0.00      15.60    1698.73    1714.33        3.89     2.45   1.000
  S42                     1714.33       0.00       0.00       0.00      15.60    1698.73    1714.33        5.42     3.41   1.000
  S43                     1714.33       0.00       0.00       0.00      15.60    1698.73    1714.33       12.34     7.77   1.000
  S44                     1714.33       0.00       0.00       0.00      15.60    1698.73    1714.33        8.95     5.64   1.000
  S45                     1714.33       0.00       0.00       0.00      15.60    1698.73    1714.33        0.91     0.57   1.000
  S46                     1714.33       0.00       0.00       0.00      15.60    1698.73    1714.33        8.30     5.23   1.000
  S47                     1714.33       0.00       0.00       0.00      15.60    1698.73    1714.33       16.77    10.56   1.000
  S48                     1714.33       0.00       0.00       0.00      15.60    1698.73    1714.33       19.37    12.20   1.000
  S49                     1714.33       0.00       0.00       0.00      15.60    1698.73    1714.33       11.78     7.42   1.000
  S50                     1714.33       0.00       0.00       0.00      15.60    1698.73    1714.33        9.70     6.11   1.000
  S51                     1714.33       0.00       0.00       0.00      15.60    1698.73    1714.33        5.73     3.61   1.000
  S52                     1714.33       0.00       0.00       0.00      15.60    1698.73    1714.33       15.17     9.55   1.000
  S53                     1714.33       0.00       0.00       0.00      15.60    1693.37    1708.97       20.82    13.14   0.997
  S54                     1714.33       0.00       0.00       0.00      15.60    1699.69    1715.29        7.84     4.93   1.001
  S55                     1714.33       0.00       0.00       0.00      15.60    1698.73    1714.33        0.65     0.41   1.000
  S56                     1714.33       0.00       0.00       0.00      15.60    1698.67    1714.27        0.65     0.41   1.000
  S57                     1714.33       0.00       0.00       0.00      15.60    1698.73    1714.33        8.86     5.58   1.000
  S58                     1714.33       0.00       0.00       0.00      15.60    1698.73    1714.33       11.38     7.17   1.000
  S59                     1714.33       0.00       0.00       0.00      15.60    1698.73    1714.33       11.06     6.96   1.000
  S60                     1714.33       0.00       0.00       0.00      13.20    1701.82    1715.02        6.74     4.24   1.000
  S61                     1714.33       0.00       0.00       0.00      13.20       0.00      13.20        0.04     0.03   0.008
  S62                     1714.33       0.00       0.00       0.00      13.20    1575.01    1588.21       85.11    52.32   0.926
  S63                     1714.33       0.00       0.00       0.00      13.20    1701.13    1714.33       16.11    10.15   1.000
  S64                     1714.33       0.00       0.00       0.00      13.20    1701.13    1714.33       43.63    27.48   1.000
  S65                     1714.33       0.00       0.00       0.00      13.20    1701.13    1714.33        6.96     4.38   1.000
  S66                     1714.33       0.00       0.00       0.00      13.20    1701.13    1714.33       11.23     7.07   1.000
  S67                     1714.33       0.00       0.00       0.00      13.20    1701.13    1714.33       20.98    13.21   1.000
  S68                     1714.33       0.00       0.00       0.00      13.20    1701.13    1714.33       24.60    15.49   1.000
  S69                     1714.33       0.00       0.00       0.00      13.20       0.00      13.20        0.33     0.21   0.008
  S70                     1714.33       0.00       0.00       0.00      13.20    1692.97    1706.17       44.65    28.23   0.995
  S71                     1714.33       0.00       0.00       0.00      15.60    1698.73    1714.33       25.22    15.88   1.000
  S72                     1714.33       0.00       0.00       0.00      13.20    1701.37    1714.57        8.50     5.35   1.000
  S73                     1714.33       0.00       0.00       0.00      13.20    1701.13    1714.33       35.93    22.63   1.000
  S74                     1714.33       0.00       0.00       0.00      13.20       0.00      13.20        0.09     0.05   0.008
  S75                     1714.33       0.00       0.00       0.00      13.20    1701.13    1714.33        1.15     0.72   1.000
  S76                     1714.33       0.00       0.00       0.00      13.20    1701.13    1714.33       22.65    14.26   1.000
  S77                     1714.33       0.00       0.00       0.00      13.20    1701.13    1714.33       18.33    11.54   1.000
  S78                     1714.33       0.00       0.00       0.00      13.20    1701.13    1714.33       13.29     8.37   1.000
  S79                     1714.33       0.00       0.00       0.00      15.60    1698.73    1714.33       11.64     7.33   1.000
  S80                     1714.33       0.00       0.00       0.00      13.20    1701.34    1714.54        4.73     2.98   1.000
  S81                     1714.33       0.00       0.00       0.00      13.20    1701.13    1714.33       19.39    12.21   1.000
  S82                     1714.33       0.00       0.00       0.00      13.20    1701.13    1714.33       18.93    11.92   1.000
  S83                     1714.33       0.00       0.00       0.00      13.20    1701.13    1714.33       12.17     7.67   1.000
  S84                     1714.33       0.00       0.00       0.00      15.60    1698.73    1714.33        7.95     5.01   1.000
  S85                     1714.33       0.00       0.00       0.00      15.60    1696.14    1711.74       21.16    13.34   0.998
  S86                     1714.33       0.00       0.00       0.00       0.00    1698.73    1698.73       19.65    12.38   0.991
  S87                     1714.33       0.00       0.00       0.00      15.60    1698.73    1714.33       21.29    13.41   1.000
  S88                     1714.33       0.00       0.00       0.00      15.60    1698.73    1714.33        3.84     2.42   1.000
  S89                     1714.33       0.00       0.00       0.00      15.60    1698.73    1714.33       17.33    10.91   1.000
  S90                     1714.33       0.00       0.00       0.00       0.00    1698.73    1698.73        8.34     5.25   0.991
  S91                     1714.33       0.00       0.00       0.00      15.60    1698.73    1714.33        2.83     1.78   1.000
  
  
  ******************
  Node Depth Summary
  ******************
  
  ---------------------------------------------------------------------------------
                                 Average  Maximum  Maximum  Time of Max    Reported
                                   Depth    Depth      HGL   Occurrence   Max Depth
  Node                 Type       Meters   Meters   Meters  days hr:min      Meters
  ---------------------------------------------------------------------------------
  J7                   JUNCTION     2.49     2.50     2.50     0  00:05        2.50
  J13                  JUNCTION     2.49     2.50     2.50     0  00:05        2.50
  J19                  JUNCTION     2.49     2.50     2.50     0  00:05        2.50
  J25                  JUNCTION     2.49     2.50     2.50     0  00:05        2.50
  J1                   JUNCTION     2.49     2.50     2.50     0  00:05        2.50
  J2                   JUNCTION     2.49     2.50     2.50     0  00:05        2.50
  J3                   JUNCTION     2.49     2.50     2.50     0  00:05        2.50
  J4                   JUNCTION     2.49     2.50     2.50     0  00:05        2.50
  J5                   JUNCTION     2.49     2.50     2.50     0  00:05        2.50
  J6                   JUNCTION     2.49     2.50     2.50     0  00:05        2.50
  J8                   JUNCTION     2.49     2.50     2.50     0  00:05        2.50
  J9                   JUNCTION     2.49     2.50     2.50     0  00:05        2.50
  J10                  JUNCTION     2.49     2.50     2.50     0  00:05        2.50
  J11                  JUNCTION     2.49     2.50     2.50     0  00:05        2.50
  J12                  JUNCTION     2.49     2.50     2.50     0  00:05        2.50
  J14                  JUNCTION     2.49     2.50     2.50     0  00:05        2.50
  J15                  JUNCTION     2.49     2.50     2.50     0  00:05        2.50
  J16                  JUNCTION     2.49     2.50     2.50     0  00:05        2.50
  J17                  JUNCTION     2.49     2.50     2.50     0  00:05        2.50
  J18                  JUNCTION     2.49     2.50     2.50     0  00:05        2.50
  J20                  JUNCTION     2.49     2.50     2.50     0  00:05        2.50
  J21                  JUNCTION     2.49     2.50     2.50     0  00:05        2.50
  J22                  JUNCTION     2.49     2.50     2.50     0  00:05        2.50
  J23                  JUNCTION     2.49     2.50     2.50     0  00:05        2.50
  J24                  JUNCTION     2.49     2.50     2.50     0  00:05        2.50
  J26                  JUNCTION     2.49     2.50     2.50     0  00:05        2.50
  J27                  JUNCTION     2.49     2.50     2.50     0  00:05        2.50
  J29                  JUNCTION     2.49     2.50     2.50     0  00:05        2.50
  J30                  JUNCTION     2.49     2.50     2.50     0  00:05        2.50
  J31                  JUNCTION     2.49     2.50     2.50     0  00:05        2.50
  J33                  JUNCTION     2.49     2.50     2.50     0  00:05        2.50
  J32                  JUNCTION     2.49     2.50     2.50     0  00:05        2.50
  J28                  JUNCTION     2.49     2.50     2.50     0  00:05        2.50
  OF                   OUTFALL      1.36     1.41     1.41     0  00:05        1.37
  
  
  *******************
  Node Inflow Summary
  *******************
  
  -------------------------------------------------------------------------------------------------
                                  Maximum  Maximum                  Lateral       Total        Flow
                                  Lateral    Total  Time of Max      Inflow      Inflow     Balance
                                   Inflow   Inflow   Occurrence      Volume      Volume       Error
  Node                 Type           CMS      CMS  days hr:min    10^6 ltr    10^6 ltr     Percent
  -------------------------------------------------------------------------------------------------
  J7                   JUNCTION    70.213   70.213     0  00:20         111         111       0.584
  J13                  JUNCTION     6.159    6.782     0  00:15        9.65        11.2       2.080
  J19                  JUNCTION   291.892  291.892     0  00:20         457         457       1.372
  J25                  JUNCTION    35.336   36.164     0  00:20        54.6        57.1       0.940
  J1                   JUNCTION    24.502   24.502     0  00:15        38.4        38.4       1.375
  J2                   JUNCTION    18.408   18.757     0  00:15        28.8        29.7       1.448
  J3                   JUNCTION     0.820    3.199     0  00:05        1.29        2.95       8.464
  J4                   JUNCTION    53.301   53.720     0  00:15        83.5        84.5       1.182
  J5                   JUNCTION    44.070   44.309     0  00:15          69        69.6       1.252
  J6                   JUNCTION    19.282   19.282     0  00:20        30.2        30.2       1.054
  J8                   JUNCTION    29.668   29.668     0  00:15        46.5        46.5       1.444
  J9                   JUNCTION    13.342   13.997     0  00:20        20.9        22.7       1.185
  J10                  JUNCTION    19.908   19.908     0  00:15        31.2        31.2       1.341
  J11                  JUNCTION    21.388   21.729     0  00:15        33.5        34.3       1.285
  J12                  JUNCTION    22.629   23.211     0  00:15        35.4        36.8       1.505
  J14                  JUNCTION    19.174   19.174     0  00:20          30          30       1.521
  J15                  JUNCTION    27.439   27.439     0  00:20        42.9        42.9       1.195
  J16                  JUNCTION    15.881   16.546     0  00:15        24.9        26.5       1.360
  J17                  JUNCTION     0.207    2.673     0  00:05       0.324        2.53       3.597
  J18                  JUNCTION     0.723    2.276     0  00:05        1.13        3.11       7.910
  J20                  JUNCTION    53.588   53.588     0  00:20        83.7        83.7       1.372
  J21                  JUNCTION    17.698   17.698     0  00:20        27.7        27.7       1.521
  J22                  JUNCTION    36.329   36.329     0  00:20        56.7        56.7       1.073
  J23                  JUNCTION    19.065   19.548     0  00:20        29.8        31.3       1.436
  J24                  JUNCTION     2.514    2.938     0  00:15        3.94           5       3.386
  J26                  JUNCTION    15.633   15.633     0  00:15        24.5        24.5       1.245
  J27                  JUNCTION    13.711   14.182     0  00:15        21.5        22.6       1.682
  J29                  JUNCTION    22.488   23.364     0  00:15        35.2        37.5       1.889
  J30                  JUNCTION     0.000    3.670     0  00:05           0        2.59      11.323
  J31                  JUNCTION    63.993   64.256     0  00:20         100         101       0.453
  J33                  JUNCTION    22.127   22.127     0  00:20        34.7        34.7       1.311
  J32                  JUNCTION    10.094   10.861     0  00:15        15.8        17.7       1.630
  J28                  JUNCTION    16.140   16.838     0  00:15        25.3          27       1.913
  OF                   OUTFALL      0.000    7.967     0  00:05           0          21       0.000
  
  
  **********************
  Node Surcharge Summary
  **********************
  
  Surcharging occurs when water rises above the top of the highest conduit.
  ---------------------------------------------------------------------
                                               Max. Height   Min. Depth
                                   Hours       Above Crown    Below Rim
  Node                 Type      Surcharged         Meters       Meters
  ---------------------------------------------------------------------
  J7                   JUNCTION        0.83          0.850        0.000
  J13                  JUNCTION        0.83          0.850        0.000
  J19                  JUNCTION        0.83          0.850        0.000
  J25                  JUNCTION        0.83          0.850        0.000
  J1                   JUNCTION        0.83          0.850        0.000
  J2                   JUNCTION        0.83          0.850        0.000
  J3                   JUNCTION        0.83          0.850        0.000
  J4                   JUNCTION        0.83          0.850        0.000
  J5                   JUNCTION        0.83          0.850        0.000
  J6                   JUNCTION        0.83          0.850        0.000
  J8                   JUNCTION        0.83          0.850        0.000
  J9                   JUNCTION        0.83          0.850        0.000
  J10                  JUNCTION        0.83          0.850        0.000
  J11                  JUNCTION        0.83          0.850        0.000
  J12                  JUNCTION        0.83          0.850        0.000
  J14                  JUNCTION        0.83          0.850        0.000
  J15                  JUNCTION        0.83          0.850        0.000
  J16                  JUNCTION        0.83          0.850        0.000
  J17                  JUNCTION        0.83          0.850        0.000
  J18                  JUNCTION        0.83          0.850        0.000
  J20                  JUNCTION        0.83          0.850        0.000
  J21                  JUNCTION        0.83          0.850        0.000
  J22                  JUNCTION        0.83          0.850        0.000
  J23                  JUNCTION        0.83          0.850        0.000
  J24                  JUNCTION        0.83          0.850        0.000
  J26                  JUNCTION        0.83          0.850        0.000
  J27                  JUNCTION        0.83          0.850        0.000
  J29                  JUNCTION        0.83          0.850        0.000
  J30                  JUNCTION        0.83          0.850        0.000
  J31                  JUNCTION        0.83          0.850        0.000
  J33                  JUNCTION        0.83          0.850        0.000
  J32                  JUNCTION        0.83          0.850        0.000
  J28                  JUNCTION        0.83          0.850        0.000
  
  
  *********************
  Node Flooding Summary
  *********************
  
  Flooding refers to all water that overflows a node, whether it ponds or not.
  --------------------------------------------------------------------------
                                                             Total   Maximum
                                 Maximum   Time of Max       Flood    Ponded
                        Hours       Rate    Occurrence      Volume     Depth
  Node                 Flooded       CMS   days hr:min    10^6 ltr    Meters
  --------------------------------------------------------------------------
  J7                      0.83    69.469      0  00:20     108.808     0.000
  J13                     0.83     6.779      0  00:15      11.170     0.000
  J19                     0.83   284.539      0  00:20     436.118     0.000
  J25                     0.83    36.095      0  00:20      57.091     0.000
  J1                      0.83    24.224      0  00:20      37.548     0.000
  J2                      0.83    18.250      0  00:20      28.451     0.000
  J3                      0.83     3.071      0  00:05       2.949     0.000
  J4                      0.83    52.936      0  00:20      81.666     0.000
  J5                      0.83    43.248      0  00:20      66.515     0.000
  J6                      0.83    18.526      0  00:20      27.986     0.000
  J8                      0.83    29.440      0  00:20      45.829     0.000
  J9                      0.83    13.663      0  00:20      21.560     0.000
  J10                     0.83    19.440      0  00:20      29.903     0.000
  J11                     0.83    21.186      0  00:20      32.795     0.000
  J12                     0.83    22.818      0  00:15      35.881     0.000
  J14                     0.83    19.174      0  00:20      30.035     0.000
  J15                     0.83    26.955      0  00:20      41.518     0.000
  J16                     0.83    16.089      0  00:16      25.262     0.000
  J17                     0.83     1.179      0  00:05       0.971     0.000
  J18                     0.75     1.524      0  00:05       2.054     0.000
  J20                     0.83    53.577      0  00:20      83.659     0.000
  J21                     0.83    17.698      0  00:20      27.723     0.000
  J22                     0.83    35.786      0  00:20      55.068     0.000
  J23                     0.83    19.284      0  00:20      30.486     0.000
  J24                     0.75     2.563      0  00:15       3.930     0.000
  J26                     0.83    15.336      0  00:20      23.566     0.000
  J27                     0.83    14.180      0  00:15      22.598     0.000
  J29                     0.83    23.147      0  00:15      36.952     0.000
  J30                     0.83     3.557      0  00:05       2.594     0.000
  J31                     0.83    63.712      0  00:20      99.220     0.000
  J33                     0.83    21.827      0  00:20      33.730     0.000
  J32                     0.83    10.434      0  00:15      16.604     0.000
  J28                     0.83    16.834      0  00:15      27.011     0.000
  
  
  ***********************
  Outfall Loading Summary
  ***********************
  
  -----------------------------------------------------------
                         Flow       Avg       Max       Total
                         Freq      Flow      Flow      Volume
  Outfall Node           Pcnt       CMS       CMS    10^6 ltr
  -----------------------------------------------------------
  OF                   100.00     7.321     7.967      21.044
  -----------------------------------------------------------
  System               100.00     7.321     7.967      21.044
  
  
  ********************
  Link Flow Summary
  ********************
  
  -----------------------------------------------------------------------------
                                 Maximum  Time of Max   Maximum    Max/    Max/
                                  |Flow|   Occurrence   |Veloc|    Full    Full
  Link                 Type          CMS  days hr:min     m/sec    Flow   Depth
  -----------------------------------------------------------------------------
  P1                   PUMP        0.000     0  00:00                          
  C23                  CONDUIT     0.438     0  00:05      0.20    3.81    1.00
  C24                  CONDUIT     0.041     0  00:05      0.02    0.36    1.00
  C25                  CONDUIT     0.399     0  00:05      0.19    3.19    1.00
  C26                  CONDUIT     0.125     0  00:05      0.06    0.98    1.00
  C27                  CONDUIT     0.475     0  00:05      0.22    3.91    1.00
  C28                  CONDUIT     1.356     0  00:05      0.63    9.35    1.00
  C29                  CONDUIT     0.750     0  00:05      0.35    5.28    1.00
  C30                  CONDUIT     0.172     0  00:05      0.08    1.51    1.00
  C31                  CONDUIT     0.370     0  00:05      0.17    3.24    1.00
  C32                  CONDUIT     0.000     0  00:05      0.00    0.00    1.00
  C33                  CONDUIT     2.941     0  00:05      1.38   17.21    1.00
  C34                  CONDUIT     0.499     0  00:05      0.23    3.97    1.00
  C35                  CONDUIT     0.377     0  00:05      0.18    4.01    1.00
  C36                  CONDUIT     0.839     0  00:05      0.39    7.91    1.00
  C37                  CONDUIT     0.419     0  00:05      0.20    2.87    1.00
  C38                  CONDUIT     0.442     0  00:05      0.21    3.08    1.00
  C39                  CONDUIT     0.000     0  00:05      0.00    0.00    1.00
  C40                  CONDUIT     0.000     0  00:00      0.00    0.00    1.00
  C41                  CONDUIT     0.910     0  00:05      0.43    7.06    1.00
  C43                  CONDUIT     0.938     0  00:05      0.44    7.15    1.00
  C44                  CONDUIT     1.421     0  00:05      0.66   12.13    1.00
  C45                  CONDUIT     1.245     0  00:05      0.58   10.68    1.00
  C46                  CONDUIT     2.425     0  00:05      1.13   20.10    1.00
  C48                  CONDUIT     0.000     0  00:05      0.00    0.00    1.00
  C42                  CONDUIT     0.000     0  00:05      0.00    0.00    1.00
  C50                  CONDUIT     1.208     0  00:05      0.56   11.67    1.00
  C49                  CONDUIT     0.313     0  00:05      0.15    2.73    1.00
  C01                  CONDUIT     0.000     0  00:00      0.00    0.00    1.00
  C02                  CONDUIT     0.000     0  00:00      0.00    0.00    1.00
  C03                  CONDUIT     0.829     0  00:05      0.39    6.62    1.00
  C04                  CONDUIT     0.659     0  00:05      0.31    5.18    1.00
  C05                  CONDUIT     0.897     0  00:05      0.42    7.16    1.00
  C06                  CONDUIT     0.000     0  00:00      0.00    0.00    1.00
  C07                  CONDUIT     0.000     0  00:00      0.00    0.00    1.00
  C08                  CONDUIT     0.000     0  00:00      0.00    0.00    1.00
  C09                  CONDUIT     0.559     0  00:05      0.26    4.90    1.00
  C10                  CONDUIT     0.642     0  00:05      0.30    5.12    1.00
  C11                  CONDUIT     0.000     0  00:00      0.00    0.00    1.00
  C12                  CONDUIT     0.355     0  00:05      0.17    3.06    1.00
  C13                  CONDUIT     0.765     0  00:05      0.36    6.65    1.00
  C14                  CONDUIT     1.505     0  00:05      0.70   11.96    1.00
  C15                  CONDUIT     1.092     0  00:05      0.51    8.67    1.00
  C16                  CONDUIT     1.184     0  00:05      0.55   10.39    1.00
  C17                  CONDUIT     1.103     0  00:05      0.52    9.73    1.00
  C18                  CONDUIT     0.000     0  00:00      0.00    0.00    1.00
  C19                  CONDUIT     0.616     0  00:05      0.29    4.90    1.00
  C20                  CONDUIT     0.958     0  00:05      0.45    8.53    1.00
  C21                  CONDUIT     0.660     0  00:05      0.31    6.23    1.00
  C22                  CONDUIT     0.320     0  00:05      0.15    2.53    1.00
  C47                  CONDUIT     0.663     0  00:05      0.31    6.81    1.00
  Cout                 CONDUIT     7.967     0  00:05      3.85   62.91    0.93
  
  
  ***************************
  Flow Classification Summary
  ***************************
  
  -------------------------------------------------------------------------------------
                      Adjusted    ---------- Fraction of Time in Flow Class ---------- 
                       /Actual         Up    Down  Sub   Sup   Up    Down  Norm  Inlet 
  Conduit               Length    Dry  Dry   Dry   Crit  Crit  Crit  Crit  Ltd   Ctrl  
  -------------------------------------------------------------------------------------
  C23                     1.00   0.00  0.00  0.00  1.00  0.00  0.00  0.00  0.00  0.00
  C24                     1.00   0.00  0.00  0.00  1.00  0.00  0.00  0.00  0.00  0.00
  C25                     1.00   0.00  0.00  0.00  1.00  0.00  0.00  0.00  0.00  0.00
  C26                     1.00   0.00  0.00  0.00  1.00  0.00  0.00  0.00  0.00  0.00
  C27                     1.00   0.00  0.00  0.00  1.00  0.00  0.00  0.00  0.00  0.00
  C28                     1.00   0.00  0.00  0.00  1.00  0.00  0.00  0.00  0.00  0.00
  C29                     1.00   0.00  0.00  0.00  1.00  0.00  0.00  0.00  0.00  0.00
  C30                     1.00   0.00  0.00  0.00  1.00  0.00  0.00  0.00  0.00  0.00
  C31                     1.00   0.00  0.00  0.00  1.00  0.00  0.00  0.00  0.00  0.00
  C32                     1.00   0.00  0.00  0.00  1.00  0.00  0.00  0.00  0.00  0.00
  C33                     1.00   0.00  0.00  0.00  1.00  0.00  0.00  0.00  0.00  0.00
  C34                     1.00   0.00  0.00  0.00  1.00  0.00  0.00  0.00  0.00  0.00
  C35                     1.00   0.00  0.00  0.00  1.00  0.00  0.00  0.00  0.00  0.00
  C36                     1.00   0.00  0.00  0.00  1.00  0.00  0.00  0.00  0.00  0.00
  C37                     1.00   0.00  0.00  0.00  1.00  0.00  0.00  0.00  0.00  0.00
  C38                     1.00   0.00  0.00  0.00  1.00  0.00  0.00  0.00  0.00  0.00
  C39                     1.00   0.00  0.00  0.00  1.00  0.00  0.00  0.00  0.00  0.00
  C40                     1.00   0.00  0.00  0.00  1.00  0.00  0.00  0.00  0.00  0.00
  C41                     1.00   0.00  0.00  0.00  1.00  0.00  0.00  0.00  0.00  0.00
  C43                     1.00   0.00  0.00  0.00  1.00  0.00  0.00  0.00  0.00  0.00
  C44                     1.00   0.00  0.00  0.00  1.00  0.00  0.00  0.00  0.00  0.00
  C45                     1.00   0.00  0.00  0.00  1.00  0.00  0.00  0.00  0.00  0.00
  C46                     1.00   0.00  0.00  0.00  1.00  0.00  0.00  0.00  0.00  0.00
  C48                     1.00   0.00  0.00  0.00  1.00  0.00  0.00  0.00  0.00  0.00
  C42                     1.00   0.00  0.00  0.00  1.00  0.00  0.00  0.00  0.00  0.00
  C50                     1.00   0.00  0.00  0.00  1.00  0.00  0.00  0.00  0.00  0.00
  C49                     1.00   0.00  0.00  0.00  1.00  0.00  0.00  0.00  0.00  0.00
  C01                     1.00   0.00  0.00  0.00  1.00  0.00  0.00  0.00  0.00  0.00
  C02                     1.00   0.00  0.00  0.00  1.00  0.00  0.00  0.00  0.00  0.00
  C03                     1.00   0.00  0.00  0.00  1.00  0.00  0.00  0.00  0.00  0.00
  C04                     1.00   0.00  0.00  0.00  1.00  0.00  0.00  0.00  0.00  0.00
  C05                     1.00   0.00  0.00  0.00  1.00  0.00  0.00  0.00  0.00  0.00
  C06                     1.00   0.00  0.00  0.00  1.00  0.00  0.00  0.00  0.00  0.00
  C07                     1.00   0.00  0.00  0.00  1.00  0.00  0.00  0.00  0.00  0.00
  C08                     1.00   0.00  0.00  0.00  1.00  0.00  0.00  0.00  0.00  0.00
  C09                     1.00   0.00  0.00  0.00  1.00  0.00  0.00  0.00  0.00  0.00
  C10                     1.00   0.00  0.00  0.00  1.00  0.00  0.00  0.00  0.00  0.00
  C11                     1.00   0.00  0.00  0.00  1.00  0.00  0.00  0.00  0.00  0.00
  C12                     1.00   0.00  0.00  0.00  1.00  0.00  0.00  0.00  0.00  0.00
  C13                     1.00   0.00  0.00  0.00  1.00  0.00  0.00  0.00  0.00  0.00
  C14                     1.00   0.00  0.00  0.00  1.00  0.00  0.00  0.00  0.00  0.00
  C15                     1.00   0.00  0.00  0.00  1.00  0.00  0.00  0.00  0.00  0.00
  C16                     1.00   0.00  0.00  0.00  1.00  0.00  0.00  0.00  0.00  0.00
  C17                     1.00   0.00  0.00  0.00  1.00  0.00  0.00  0.00  0.00  0.00
  C18                     1.00   0.00  0.00  0.00  1.00  0.00  0.00  0.00  0.00  0.00
  C19                     1.00   0.00  0.00  0.00  1.00  0.00  0.00  0.00  0.00  0.00
  C20                     1.00   0.00  0.00  0.00  1.00  0.00  0.00  0.00  0.00  0.00
  C21                     1.00   0.00  0.00  0.00  1.00  0.00  0.00  0.00  0.00  0.00
  C22                     1.00   0.00  0.00  0.00  1.00  0.00  0.00  0.00  0.00  0.00
  C47                     1.00   0.00  0.00  0.00  1.00  0.00  0.00  0.00  0.00  0.00
  Cout                    1.00   0.00  0.00  0.00  1.00  0.00  0.00  0.00  0.00  0.00
  
  
  *************************
  Conduit Surcharge Summary
  *************************
  
  ----------------------------------------------------------------------------
                                                           Hours        Hours 
                         --------- Hours Full --------   Above Full   Capacity
  Conduit                Both Ends  Upstream  Dnstream   Normal Flow   Limited
  ----------------------------------------------------------------------------
  C23                         0.83      0.83      0.83      0.79         0.01
  C24                         0.83      0.83      0.83      0.01         0.01
  C25                         0.83      0.83      0.83      0.69         0.01
  C26                         0.83      0.83      0.83      0.01         0.01
  C27                         0.83      0.83      0.83      0.76         0.01
  C28                         0.83      0.83      0.83      0.76         0.01
  C29                         0.83      0.83      0.83      0.71         0.01
  C30                         0.83      0.83      0.83      0.41         0.01
  C31                         0.83      0.83      0.83      0.75         0.01
  C32                         0.83      0.83      0.83      0.01         0.01
  C33                         0.83      0.83      0.83      0.69         0.01
  C34                         0.83      0.83      0.83      0.74         0.01
  C35                         0.83      0.83      0.83      0.83         0.01
  C36                         0.83      0.83      0.83      0.83         0.01
  C37                         0.83      0.83      0.83      0.57         0.01
  C38                         0.83      0.83      0.83      0.60         0.01
  C39                         0.83      0.83      0.83      0.01         0.01
  C40                         0.83      0.83      0.83      0.01         0.01
  C41                         0.83      0.83      0.83      0.82         0.01
  C43                         0.83      0.83      0.83      0.81         0.01
  C44                         0.83      0.83      0.83      0.83         0.01
  C45                         0.83      0.83      0.83      0.83         0.01
  C46                         0.83      0.83      0.83      0.83         0.01
  C48                         0.83      0.83      0.83      0.01         0.01
  C42                         0.83      0.83      0.83      0.01         0.01
  C50                         0.83      0.83      0.83      0.83         0.01
  C49                         0.83      0.83      0.83      0.69         0.01
  C01                         0.83      0.83      0.83      0.01         0.01
  C02                         0.83      0.83      0.83      0.01         0.01
  C03                         0.83      0.83      0.83      0.83         0.01
  C04                         0.83      0.83      0.83      0.78         0.01
  C05                         0.83      0.83      0.83      0.83         0.08
  C06                         0.83      0.83      0.83      0.01         0.01
  C07                         0.83      0.83      0.83      0.01         0.01
  C08                         0.83      0.83      0.83      0.01         0.01
  C09                         0.83      0.83      0.83      0.83         0.01
  C10                         0.83      0.83      0.83      0.79         0.01
  C11                         0.83      0.83      0.83      0.01         0.01
  C12                         0.83      0.83      0.83      0.72         0.01
  C13                         0.83      0.83      0.83      0.83         0.08
  C14                         0.83      0.83      0.83      0.83         0.01
  C15                         0.83      0.83      0.83      0.83         0.08
  C16                         0.83      0.83      0.83      0.83         0.01
  C17                         0.83      0.83      0.83      0.83         0.01
  C18                         0.83      0.83      0.83      0.01         0.01
  C19                         0.83      0.83      0.83      0.78         0.01
  C20                         0.83      0.83      0.83      0.83         0.01
  C21                         0.83      0.83      0.83      0.83         0.01
  C22                         0.83      0.83      0.83      0.61         0.01
  C47                         0.83      0.83      0.83      0.83         0.01
  Cout                        0.01      0.83      0.01      0.83         0.01
  
  
  ***************
  Pumping Summary
  ***************
  
  ---------------------------------------------------------------------------------------------------------
                                                  Min       Avg       Max     Total     Power    % Time Off
                        Percent   Number of      Flow      Flow      Flow    Volume     Usage    Pump Curve
  Pump                 Utilized   Start-Ups       CMS       CMS       CMS  10^6 ltr     Kw-hr    Low   High
  ---------------------------------------------------------------------------------------------------------
  P1                       0.00           0      0.00      0.00      0.00     0.000      0.00    0.0    0.0
  

  Analysis begun on:  Mon Nov 18 19:49:47 2024
  Analysis ended on:  Mon Nov 18 19:49:47 2024
  Total elapsed time: < 1 sec