
  EPA STORM WATER MANAGEMENT MODEL - VERSION 5.2 (Build 5.2.4)
  PYSWMM TOOLKIT API - VERSION v1.0 (2023-11-27)
  ------------------------------------------------------------

  WARNING 04: minimum elevation drop used for Conduit C23
  WARNING 04: minimum elevation drop used for Conduit C24
  WARNING 04: minimum elevation drop used for Conduit C25
  WARNING 04: minimum elevation drop used for Conduit C26
  WARNING 04: minimum elevation drop used for Conduit C27
  WARNING 04: minimum elevation drop used for Conduit C28
  WARNING 04: minimum elevation drop used for Conduit C29
  WARNING 04: minimum elevation drop used for Conduit C30
  WARNING 04: minimum elevation drop used for Conduit C31
  WARNING 04: minimum elevation drop used for Conduit C32
  WARNING 04: minimum elevation drop used for Conduit C33
  WARNING 04: minimum elevation drop used for Conduit C34
  WARNING 04: minimum elevation drop used for Conduit C35
  WARNING 04: minimum elevation drop used for Conduit C36
  WARNING 04: minimum elevation drop used for Conduit C37
  WARNING 04: minimum elevation drop used for Conduit C38
  WARNING 04: minimum elevation drop used for Conduit C39
  WARNING 04: minimum elevation drop used for Conduit C40
  WARNING 04: minimum elevation drop used for Conduit C41
  WARNING 04: minimum elevation drop used for Conduit C43
  WARNING 04: minimum elevation drop used for Conduit C44
  WARNING 04: minimum elevation drop used for Conduit C45
  WARNING 04: minimum elevation drop used for Conduit C46
  WARNING 04: minimum elevation drop used for Conduit C48
  WARNING 04: minimum elevation drop used for Conduit C42
  WARNING 04: minimum elevation drop used for Conduit C50
  WARNING 04: minimum elevation drop used for Conduit C49
  WARNING 04: minimum elevation drop used for Conduit C01
  WARNING 04: minimum elevation drop used for Conduit C02
  WARNING 04: minimum elevation drop used for Conduit C03
  WARNING 04: minimum elevation drop used for Conduit C04
  WARNING 04: minimum elevation drop used for Conduit C05
  WARNING 04: minimum elevation drop used for Conduit C06
  WARNING 04: minimum elevation drop used for Conduit C07
  WARNING 04: minimum elevation drop used for Conduit C08
  WARNING 04: minimum elevation drop used for Conduit C09
  WARNING 04: minimum elevation drop used for Conduit C10
  WARNING 04: minimum elevation drop used for Conduit C11
  WARNING 04: minimum elevation drop used for Conduit C12
  WARNING 04: minimum elevation drop used for Conduit C13
  WARNING 04: minimum elevation drop used for Conduit C14
  WARNING 04: minimum elevation drop used for Conduit C15
  WARNING 04: minimum elevation drop used for Conduit C16
  WARNING 04: minimum elevation drop used for Conduit C17
  WARNING 04: minimum elevation drop used for Conduit C18
  WARNING 04: minimum elevation drop used for Conduit C19
  WARNING 04: minimum elevation drop used for Conduit C20
  WARNING 04: minimum elevation drop used for Conduit C21
  WARNING 04: minimum elevation drop used for Conduit C22
  WARNING 04: minimum elevation drop used for Conduit C47
  WARNING 04: minimum elevation drop used for Conduit Cout
  
  ****************
  Analysis Options
  ****************
  Flow Units ............... CMS
  Process Models:
    Rainfall/Runoff ........ YES
    RDII ................... NO
    Snowmelt ............... NO
    Groundwater ............ NO
    Flow Routing ........... YES
    Ponding Allowed ........ NO
    Water Quality .......... NO
  Infiltration Method ...... HORTON
  Flow Routing Method ...... DYNWAVE
  Surcharge Method ......... EXTRAN
  Starting Date ............ 10/19/2013 08:00:00
  Ending Date .............. 10/19/2013 09:40:00
  Antecedent Dry Days ...... 0.0
  Report Time Step ......... 00:10:00
  Wet Time Step ............ 00:05:00
  Dry Time Step ............ 01:00:00
  Routing Time Step ........ 300.00 sec
  Variable Time Step ....... YES
  Maximum Trials ........... 8
  Number of Threads ........ 1
  Head Tolerance ........... 0.001524 m
  
  
  *********************
  Rainfall File Summary
  *********************
  Station    First        Last         Recording   Periods    Periods    Periods
  ID         Date         Date         Frequency  w/Precip    Missing    Malfunc.
  -------------------------------------------------------------------------------
  134        10/19/2013   10/19/2013      10 min        11          0          0

  
  
  **************************        Volume         Depth
  Runoff Quantity Continuity     hectare-m            mm
  **************************     ---------       -------
  Total Precipitation ......       372.548      3725.634
  Evaporation Loss .........         0.000         0.000
  Infiltration Loss ........         0.000         0.000
  Surface Runoff ...........       356.406      3564.199
  Final Storage ............        18.811       188.114
  Continuity Error (%) .....        -0.716
  
  
  **************************        Volume        Volume
  Flow Routing Continuity        hectare-m      10^6 ltr
  **************************     ---------     ---------
  Dry Weather Inflow .......         0.000         0.000
  Wet Weather Inflow .......       348.904      3489.077
  Groundwater Inflow .......         0.000         0.000
  RDII Inflow ..............         0.000         0.000
  External Inflow ..........         0.000         0.000
  External Outflow .........         4.310        43.097
  Flooding Loss ............       338.040      3380.439
  Evaporation Loss .........         0.000         0.000
  Exfiltration Loss ........         0.000         0.000
  Initial Stored Volume ....         0.046         0.463
  Final Stored Volume ......         1.883        18.831
  Continuity Error (%) .....         1.352
  
  
  *************************
  Highest Continuity Errors
  *************************
  Node J30 (19.96%)
  Node J3 (17.45%)
  Node J17 (11.97%)
  Node J18 (10.41%)
  Node J21 (2.05%)
  
  
  ***************************
  Time-Step Critical Elements
  ***************************
  Link Cout (99.51%)
  
  
  ********************************
  Highest Flow Instability Indexes
  ********************************
  All links are stable.
  
  
  *********************************
  Most Frequent Nonconverging Nodes
  *********************************
  Convergence obtained at all time steps.
  
  
  *************************
  Routing Time Step Summary
  *************************
  Minimum Time Step           :     4.82 sec
  Average Time Step           :    14.60 sec
  Maximum Time Step           :   300.00 sec
  % of Time in Steady State   :     0.00
  Average Iterations per Step :     2.01
  % of Steps Not Converging   :     0.00
  Time Step Frequencies       :
     300.000 - 83.462 sec      :     0.24 %
     83.462 - 23.220 sec      :     0.00 %
     23.220 -  6.460 sec      :    99.27 %
      6.460 -  1.797 sec      :     0.49 %
      1.797 -  0.500 sec      :     0.00 %
  
  
  ***************************
  Subcatchment Runoff Summary
  ***************************
  
  ------------------------------------------------------------------------------------------------------------------------------
                            Total      Total      Total      Total     Imperv       Perv      Total       Total     Peak  Runoff
                           Precip      Runon       Evap      Infil     Runoff     Runoff     Runoff      Runoff   Runoff   Coeff
  Subcatchment                 mm         mm         mm         mm         mm         mm         mm    10^6 ltr      CMS
  ------------------------------------------------------------------------------------------------------------------------------
  S1                      3725.63       0.00       0.00       0.00      36.88    3688.75    3725.63      939.83   250.98   1.000
  S2                      3725.63       0.00       0.00       0.00      33.90    3693.24    3727.14       28.96     7.73   1.000
  S3                      3725.63       0.00       0.00       0.00      33.90    3691.73    3725.63        7.71     2.06   1.000
  S4                      3725.63       0.00       0.00       0.00      33.90    3691.73    3725.63        7.64     2.04   1.000
  S5                      3725.63       0.00       0.00       0.00      33.90    3691.73    3725.63       11.14     2.97   1.000
  S6                      3725.63       0.00       0.00       0.00      33.90    3691.73    3725.63       30.70     8.20   1.000
  S7                      3725.63       0.00       0.00       0.00      33.90    3691.73    3725.63        5.77     1.54   1.000
  S8                      3725.63       0.00       0.00       0.00      33.90    3691.73    3725.63       18.14     4.85   1.000
  S9                      3725.63       0.00       0.00       0.00      33.90    3691.73    3725.63       22.43     5.99   1.000
  S10                     3725.63       0.00       0.00       0.00       0.00    3691.73    3691.73        5.21     1.39   0.991
  S11                     3725.63       0.00       0.00       0.00      33.90    3667.07    3700.97       54.15    14.40   0.993
  S12                     3725.63       0.00       0.00       0.00      33.90    3691.73    3725.63       32.34     8.64   1.000
  S13                     3725.63       0.00       0.00       0.00       0.00    3691.73    3691.73       31.16     8.32   0.991
  S14                     3725.63       0.00       0.00       0.00      31.30    3694.34    3725.63       29.92     7.99   1.000
  S15                     3725.63       0.00       0.00       0.00      31.30    3694.34    3725.63       27.94     7.46   1.000
  S16                     3725.63       0.00       0.00       0.00      28.69    3699.71    3728.40       65.84    17.57   1.001
  S17                     3725.63       0.00       0.00       0.00      28.69    3589.55    3618.23      123.20    30.81   0.971
  S18                     3725.63       0.00       0.00       0.00      28.69    3696.99    3725.67        4.81     1.28   1.000
  S19                     3725.63       0.00       0.00       0.00      28.69       0.00      28.69        0.07     0.02   0.008
  S20                     3725.63       0.00       0.00       0.00      28.69    3696.91    3725.60        3.80     1.01   1.000
  S21                     3725.63       0.00       0.00       0.00      28.69    3691.38    3720.06       61.68    16.46   0.999
  S22                     3725.63       0.00       0.00       0.00      28.69    3696.96    3725.65        1.23     0.33   1.000
  S23                     3725.63       0.00       0.00       0.00      28.69    3696.95    3725.63        1.45     0.39   1.000
  S24                     3725.63       0.00       0.00       0.00      28.69    3696.95    3725.63        1.83     0.49   1.000
  S25                     3725.63       0.00       0.00       0.00      28.69    3696.95    3725.63        2.20     0.59   1.000
  S26                     3725.63       0.00       0.00       0.00      28.69    3696.95    3725.63        2.57     0.69   1.000
  S27                     3725.63       0.00       0.00       0.00      28.69    3697.29    3725.97       30.96     8.27   1.000
  S28                     3725.63       0.00       0.00       0.00      28.69    3693.46    3722.14       33.05     8.82   0.999
  S29                     3725.63       0.00       0.00       0.00      28.69    3696.97    3725.65        3.43     0.92   1.000
  S30                     3725.63       0.00       0.00       0.00      28.69    3547.80    3576.49      227.82    54.04   0.960
  S31                     3725.63       0.00       0.00       0.00      29.81    3695.83    3725.63       50.48    13.48   1.000
  S32                     3725.63       0.00       0.00       0.00      29.81    3695.83    3725.63       15.54     4.15   1.000
  S33                     3725.63       0.00       0.00       0.00      35.02    3690.61    3725.63       11.59     3.09   1.000
  S34                     3725.63       0.00       0.00       0.00      35.02    3690.61    3725.63       12.26     3.27   1.000
  S35                     3725.63       0.00       0.00       0.00      33.90    3691.73    3725.63       14.98     4.00   1.000
  S36                     3725.63       0.00       0.00       0.00      33.91    3691.73    3725.64        6.15     1.64   1.000
  S37                     3725.63       0.00       0.00       0.00      33.90    3691.73    3725.63       13.41     3.58   1.000
  S38                     3725.63       0.00       0.00       0.00      33.90    3691.73    3725.63        0.60     0.16   1.000
  S39                     3725.63       0.00       0.00       0.00      33.90    3691.73    3725.63       15.28     4.08   1.000
  S40                     3725.63       0.00       0.00       0.00      33.90    3691.73    3725.63        5.25     1.40   1.000
  S41                     3725.63       0.00       0.00       0.00      33.90    3691.73    3725.63        8.46     2.26   1.000
  S42                     3725.63       0.00       0.00       0.00      33.90    3691.73    3725.63       11.77     3.14   1.000
  S43                     3725.63       0.00       0.00       0.00      33.90    3691.73    3725.63       26.82     7.16   1.000
  S44                     3725.63       0.00       0.00       0.00      33.90    3691.73    3725.63       19.45     5.19   1.000
  S45                     3725.63       0.00       0.00       0.00      33.90    3691.73    3725.63        1.97     0.53   1.000
  S46                     3725.63       0.00       0.00       0.00      33.90    3691.73    3725.63       18.03     4.82   1.000
  S47                     3725.63       0.00       0.00       0.00      33.90    3691.73    3725.63       36.44     9.73   1.000
  S48                     3725.63       0.00       0.00       0.00      33.90    3691.73    3725.63       42.10    11.24   1.000
  S49                     3725.63       0.00       0.00       0.00      33.90    3691.73    3725.63       25.60     6.84   1.000
  S50                     3725.63       0.00       0.00       0.00      33.90    3691.73    3725.63       21.09     5.63   1.000
  S51                     3725.63       0.00       0.00       0.00      33.90    3691.73    3725.63       12.44     3.32   1.000
  S52                     3725.63       0.00       0.00       0.00      33.90    3691.73    3725.63       32.97     8.81   1.000
  S53                     3725.63       0.00       0.00       0.00      33.90    3689.02    3722.92       45.35    12.10   0.999
  S54                     3725.63       0.00       0.00       0.00      33.90    3693.99    3727.89       17.04     4.55   1.001
  S55                     3725.63       0.00       0.00       0.00      33.90    3691.73    3725.63        1.42     0.38   1.000
  S56                     3725.63       0.00       0.00       0.00      33.90    3691.78    3725.69        1.42     0.38   1.000
  S57                     3725.63       0.00       0.00       0.00      33.90    3691.73    3725.63       19.26     5.14   1.000
  S58                     3725.63       0.00       0.00       0.00      33.90    3691.73    3725.63       24.74     6.61   1.000
  S59                     3725.63       0.00       0.00       0.00      33.90    3691.73    3725.63       24.03     6.42   1.000
  S60                     3725.63       0.00       0.00       0.00      28.69    3698.08    3726.77       14.65     3.91   1.000
  S61                     3725.63       0.00       0.00       0.00      28.69       0.00      28.69        0.09     0.03   0.008
  S62                     3725.63       0.00       0.00       0.00      28.69    3517.85    3546.54      190.06    43.15   0.952
  S63                     3725.63       0.00       0.00       0.00      28.69    3696.95    3725.63       35.02     9.35   1.000
  S64                     3725.63       0.00       0.00       0.00      28.69    3696.95    3725.63       94.82    25.32   1.000
  S65                     3725.63       0.00       0.00       0.00      28.69    3696.95    3725.63       15.13     4.04   1.000
  S66                     3725.63       0.00       0.00       0.00      28.69    3696.95    3725.63       24.40     6.52   1.000
  S67                     3725.63       0.00       0.00       0.00      28.69    3696.95    3725.63       45.60    12.18   1.000
  S68                     3725.63       0.00       0.00       0.00      28.69    3696.95    3725.63       53.46    14.28   1.000
  S69                     3725.63       0.00       0.00       0.00      28.69       0.00      28.69        0.71     0.19   0.008
  S70                     3725.63       0.00       0.00       0.00      28.69    3690.36    3719.04       97.33    25.97   0.998
  S71                     3725.63       0.00       0.00       0.00      33.90    3691.73    3725.63       54.80    14.64   1.000
  S72                     3725.63       0.00       0.00       0.00      28.69    3700.01    3728.70       18.49     4.93   1.001
  S73                     3725.63       0.00       0.00       0.00      28.69    3696.95    3725.63       78.09    20.85   1.000
  S74                     3725.63       0.00       0.00       0.00      28.69       0.00      28.69        0.19     0.05   0.008
  S75                     3725.63       0.00       0.00       0.00      28.69    3696.95    3725.63        2.50     0.67   1.000
  S76                     3725.63       0.00       0.00       0.00      28.69    3696.95    3725.63       49.22    13.14   1.000
  S77                     3725.63       0.00       0.00       0.00      28.69    3696.95    3725.63       39.83    10.64   1.000
  S78                     3725.63       0.00       0.00       0.00      28.69    3696.95    3725.63       28.87     7.71   1.000
  S79                     3725.63       0.00       0.00       0.00      33.90    3691.73    3725.63       25.30     6.76   1.000
  S80                     3725.63       0.00       0.00       0.00      28.69    3697.23    3725.92       10.28     2.75   1.000
  S81                     3725.63       0.00       0.00       0.00      28.69    3696.95    3725.63       42.14    11.25   1.000
  S82                     3725.63       0.00       0.00       0.00      28.69    3696.95    3725.63       41.13    10.98   1.000
  S83                     3725.63       0.00       0.00       0.00      28.69    3696.95    3725.63       26.45     7.06   1.000
  S84                     3725.63       0.00       0.00       0.00      33.90    3691.73    3725.63       17.29     4.62   1.000
  S85                     3725.63       0.00       0.00       0.00      33.90    3692.43    3726.33       46.06    12.29   1.000
  S86                     3725.63       0.00       0.00       0.00       0.00    3691.73    3691.73       42.71    11.41   0.991
  S87                     3725.63       0.00       0.00       0.00      33.90    3691.73    3725.63       46.27    12.36   1.000
  S88                     3725.63       0.00       0.00       0.00      33.90    3691.73    3725.63        8.35     2.23   1.000
  S89                     3725.63       0.00       0.00       0.00      33.90    3691.73    3725.63       37.67    10.06   1.000
  S90                     3725.63       0.00       0.00       0.00       0.00    3691.73    3691.73       18.13     4.84   0.991
  S91                     3725.63       0.00       0.00       0.00      33.90    3691.73    3725.63        6.15     1.64   1.000
  
  
  ******************
  Node Depth Summary
  ******************
  
  ---------------------------------------------------------------------------------
                                 Average  Maximum  Maximum  Time of Max    Reported
                                   Depth    Depth      HGL   Occurrence   Max Depth
  Node                 Type       Meters   Meters   Meters  days hr:min      Meters
  ---------------------------------------------------------------------------------
  J7                   JUNCTION     2.49     2.50     2.50     0  00:05        2.50
  J13                  JUNCTION     2.49     2.50     2.50     0  00:05        2.50
  J19                  JUNCTION     2.49     2.50     2.50     0  00:05        2.50
  J25                  JUNCTION     2.49     2.50     2.50     0  00:05        2.50
  J1                   JUNCTION     2.49     2.50     2.50     0  00:05        2.50
  J2                   JUNCTION     2.49     2.50     2.50     0  00:05        2.50
  J3                   JUNCTION     2.49     2.50     2.50     0  00:05        2.50
  J4                   JUNCTION     2.49     2.50     2.50     0  00:05        2.50
  J5                   JUNCTION     2.49     2.50     2.50     0  00:05        2.50
  J6                   JUNCTION     2.49     2.50     2.50     0  00:05        2.50
  J8                   JUNCTION     2.49     2.50     2.50     0  00:05        2.50
  J9                   JUNCTION     2.49     2.50     2.50     0  00:05        2.50
  J10                  JUNCTION     2.49     2.50     2.50     0  00:05        2.50
  J11                  JUNCTION     2.49     2.50     2.50     0  00:05        2.50
  J12                  JUNCTION     2.49     2.50     2.50     0  00:05        2.50
  J14                  JUNCTION     2.49     2.50     2.50     0  00:05        2.50
  J15                  JUNCTION     2.49     2.50     2.50     0  00:05        2.50
  J16                  JUNCTION     2.49     2.50     2.50     0  00:05        2.50
  J17                  JUNCTION     2.49     2.50     2.50     0  00:05        2.50
  J18                  JUNCTION     2.49     2.50     2.50     0  00:05        2.50
  J20                  JUNCTION     2.49     2.50     2.50     0  00:05        2.50
  J21                  JUNCTION     2.49     2.50     2.50     0  00:05        2.50
  J22                  JUNCTION     2.49     2.50     2.50     0  00:05        2.50
  J23                  JUNCTION     2.49     2.50     2.50     0  00:05        2.50
  J24                  JUNCTION     2.49     2.50     2.50     0  00:05        2.50
  J26                  JUNCTION     2.49     2.50     2.50     0  00:05        2.50
  J27                  JUNCTION     2.49     2.50     2.50     0  00:05        2.50
  J29                  JUNCTION     2.49     2.50     2.50     0  00:05        2.50
  J30                  JUNCTION     2.49     2.50     2.50     0  00:05        2.50
  J31                  JUNCTION     2.49     2.50     2.50     0  00:05        2.50
  J33                  JUNCTION     2.49     2.50     2.50     0  00:05        2.50
  J32                  JUNCTION     2.49     2.50     2.50     0  00:05        2.50
  J28                  JUNCTION     2.49     2.50     2.50     0  00:05        2.50
  OF                   OUTFALL      1.37     1.42     1.42     0  00:05        1.37
  
  
  *******************
  Node Inflow Summary
  *******************
  
  -------------------------------------------------------------------------------------------------
                                  Maximum  Maximum                  Lateral       Total        Flow
                                  Lateral    Total  Time of Max      Inflow      Inflow     Balance
                                   Inflow   Inflow   Occurrence      Volume      Volume       Error
  Node                 Type           CMS      CMS  days hr:min    10^6 ltr    10^6 ltr     Percent
  -------------------------------------------------------------------------------------------------
  J7                   JUNCTION    59.608   59.608     0  00:10         246         246       1.267
  J13                  JUNCTION     5.676    5.676     0  00:10        20.8        20.8       2.067
  J19                  JUNCTION   268.989  268.989     0  00:10         987         987       2.023
  J25                  JUNCTION    30.813   31.018     0  00:10         120         121       0.969
  J1                   JUNCTION    22.580   22.580     0  00:10        82.8        82.8       2.092
  J2                   JUNCTION    16.964   16.964     0  00:05        62.2        62.2       1.731
  J3                   JUNCTION     0.756   32.713     0  00:05        2.77        13.4      21.132
  J4                   JUNCTION    49.120   49.120     0  00:05         180         180       1.143
  J5                   JUNCTION    40.614   40.614     0  00:05         149         149       1.545
  J6                   JUNCTION    17.770   17.770     0  00:10        65.2        65.2       2.092
  J8                   JUNCTION    27.341   27.341     0  00:05         100         100       2.092
  J9                   JUNCTION    12.291   12.291     0  00:10        45.1        45.1       1.803
  J10                  JUNCTION    18.347   18.347     0  00:05        67.3        67.3       2.024
  J11                  JUNCTION    19.711   19.941     0  00:05        72.3        73.2       1.555
  J12                  JUNCTION    20.854   20.854     0  00:05        76.5        76.5       1.565
  J14                  JUNCTION    17.670   17.670     0  00:10        64.8        64.8       2.092
  J15                  JUNCTION    25.275   25.275     0  00:10        92.7        92.7       1.991
  J16                  JUNCTION    14.636   16.181     0  00:05        53.7        56.5       1.769
  J17                  JUNCTION     0.190   14.855     0  00:05       0.698        8.88      13.593
  J18                  JUNCTION     0.667   11.730     0  00:05        2.45        7.65      11.618
  J20                  JUNCTION    49.285   49.285     0  00:10         181         181       2.005
  J21                  JUNCTION    16.310   16.310     0  00:05        59.8        59.8       2.092
  J22                  JUNCTION    33.436   33.436     0  00:10         123         123       1.914
  J23                  JUNCTION    17.568   18.140     0  00:10        64.5        66.1       1.468
  J24                  JUNCTION     2.317    2.317     0  00:05         8.5         8.5       1.873
  J26                  JUNCTION    14.407   14.407     0  00:05        52.8        52.8       2.092
  J27                  JUNCTION    12.636   15.459     0  00:05        46.4        49.2       1.698
  J29                  JUNCTION    20.725   21.365     0  00:05          76        77.5       1.398
  J30                  JUNCTION     0.000   28.980     0  00:05           0        10.4      24.932
  J31                  JUNCTION    54.037   54.037     0  00:10         222         222       0.764
  J33                  JUNCTION    20.392   20.392     0  00:10        74.8        74.8       2.091
  J32                  JUNCTION     9.303    9.303     0  00:10        34.1        34.1       2.030
  J28                  JUNCTION    14.874   17.480     0  00:05        54.6        57.3       1.742
  OF                   OUTFALL      0.000    7.984     0  00:05           0        43.1       0.000
  
  
  **********************
  Node Surcharge Summary
  **********************
  
  Surcharging occurs when water rises above the top of the highest conduit.
  ---------------------------------------------------------------------
                                               Max. Height   Min. Depth
                                   Hours       Above Crown    Below Rim
  Node                 Type      Surcharged         Meters       Meters
  ---------------------------------------------------------------------
  J7                   JUNCTION        1.67          0.850        0.000
  J13                  JUNCTION        1.67          0.850        0.000
  J19                  JUNCTION        1.67          0.850        0.000
  J25                  JUNCTION        1.67          0.850        0.000
  J1                   JUNCTION        1.67          0.850        0.000
  J2                   JUNCTION        1.67          0.850        0.000
  J3                   JUNCTION        1.67          0.850        0.000
  J4                   JUNCTION        1.67          0.850        0.000
  J5                   JUNCTION        1.67          0.850        0.000
  J6                   JUNCTION        1.67          0.850        0.000
  J8                   JUNCTION        1.67          0.850        0.000
  J9                   JUNCTION        1.67          0.850        0.000
  J10                  JUNCTION        1.67          0.850        0.000
  J11                  JUNCTION        1.67          0.850        0.000
  J12                  JUNCTION        1.67          0.850        0.000
  J14                  JUNCTION        1.67          0.850        0.000
  J15                  JUNCTION        1.67          0.850        0.000
  J16                  JUNCTION        1.67          0.850        0.000
  J17                  JUNCTION        1.67          0.850        0.000
  J18                  JUNCTION        1.67          0.850        0.000
  J20                  JUNCTION        1.67          0.850        0.000
  J21                  JUNCTION        1.67          0.850        0.000
  J22                  JUNCTION        1.67          0.850        0.000
  J23                  JUNCTION        1.67          0.850        0.000
  J24                  JUNCTION        1.67          0.850        0.000
  J26                  JUNCTION        1.67          0.850        0.000
  J27                  JUNCTION        1.67          0.850        0.000
  J29                  JUNCTION        1.67          0.850        0.000
  J30                  JUNCTION        1.67          0.850        0.000
  J31                  JUNCTION        1.67          0.850        0.000
  J33                  JUNCTION        1.67          0.850        0.000
  J32                  JUNCTION        1.67          0.850        0.000
  J28                  JUNCTION        1.67          0.850        0.000
  
  
  *********************
  Node Flooding Summary
  *********************
  
  Flooding refers to all water that overflows a node, whether it ponds or not.
  --------------------------------------------------------------------------
                                                             Total   Maximum
                                 Maximum   Time of Max       Flood    Ponded
                        Hours       Rate    Occurrence      Volume     Depth
  Node                 Flooded       CMS   days hr:min    10^6 ltr    Meters
  --------------------------------------------------------------------------
  J7                      1.67    59.509      0  00:10     245.737     0.000
  J13                     1.67     5.675      0  00:10      20.836     0.000
  J19                     1.67   261.634      0  00:10     943.589     0.000
  J25                     1.67    29.681      0  00:10     117.680     0.000
  J1                      1.67    22.580      0  00:10      82.825     0.000
  J2                      1.67    15.565      0  00:10      59.288     0.000
  J3                      1.67    27.916      0  00:05      13.420     0.000
  J4                      1.67    47.535      0  00:10     173.514     0.000
  J5                      1.67    39.319      0  00:10     144.909     0.000
  J6                      1.67    17.770      0  00:10      65.186     0.000
  J8                      1.67    27.341      0  00:05     100.289     0.000
  J9                      1.67    11.634      0  00:10      43.728     0.000
  J10                     1.67    17.884      0  00:10      65.990     0.000
  J11                     1.67    18.855      0  00:10      70.622     0.000
  J12                     1.67    19.755      0  00:10      73.795     0.000
  J14                     1.67    17.670      0  00:10      64.816     0.000
  J15                     1.67    24.874      0  00:10      91.761     0.000
  J16                     1.67    14.801      0  00:10      54.420     0.000
  J17                     1.67    13.913      0  00:05       8.885     0.000
  J18                     1.67    10.307      0  00:05       6.654     0.000
  J20                     1.67    49.268      0  00:10     180.936     0.000
  J21                     1.67    16.310      0  00:05      59.827     0.000
  J22                     1.67    32.709      0  00:10     120.874     0.000
  J23                     1.67    17.059      0  00:10      63.449     0.000
  J24                     1.67     2.110      0  00:10       7.863     0.000
  J26                     1.67    14.407      0  00:05      52.845     0.000
  J27                     1.67    12.948      0  00:10      46.820     0.000
  J29                     1.67    19.520      0  00:10      73.386     0.000
  J30                     1.67    25.662      0  00:05      10.379     0.000
  J31                     1.67    52.795      0  00:10     218.435     0.000
  J33                     1.67    20.392      0  00:10      74.810     0.000
  J32                     1.67     9.072      0  00:10      33.440     0.000
  J28                     1.67    15.150      0  00:10      54.960     0.000
  
  
  ***********************
  Outfall Loading Summary
  ***********************
  
  -----------------------------------------------------------
                         Flow       Avg       Max       Total
                         Freq      Flow      Flow      Volume
  Outfall Node           Pcnt       CMS       CMS    10^6 ltr
  -----------------------------------------------------------
  OF                   100.00     7.336     7.984      43.096
  -----------------------------------------------------------
  System               100.00     7.336     7.984      43.096
  
  
  ********************
  Link Flow Summary
  ********************
  
  -----------------------------------------------------------------------------
                                 Maximum  Time of Max   Maximum    Max/    Max/
                                  |Flow|   Occurrence   |Veloc|    Full    Full
  Link                 Type          CMS  days hr:min     m/sec    Flow   Depth
  -----------------------------------------------------------------------------
  P1                   PUMP        0.000     0  00:00                          
  C23                  CONDUIT     0.000     0  00:00      0.00    0.00    1.00
  C24                  CONDUIT     0.493     0  00:05      0.23    4.27    1.00
  C25                  CONDUIT     0.000     0  00:00      0.00    0.00    1.00
  C26                  CONDUIT     0.115     0  00:05      0.05    0.90    1.00
  C27                  CONDUIT     0.000     0  00:00      0.00    0.00    1.00
  C28                  CONDUIT     1.299     0  00:05      0.61    8.95    1.00
  C29                  CONDUIT     0.000     0  00:00      0.00    0.00    1.00
  C30                  CONDUIT     0.000     0  00:00      0.00    0.00    1.00
  C31                  CONDUIT     0.092     0  00:05      0.04    0.80    1.00
  C32                  CONDUIT     4.526     0  00:05      2.12   29.25    1.00
  C33                  CONDUIT    22.810     0  00:05     10.67  133.46    1.00
  C34                  CONDUIT     0.000     0  00:00      0.00    0.00    1.00
  C35                  CONDUIT     0.000     0  00:05      0.00    0.00    1.00
  C36                  CONDUIT     0.000     0  00:05      0.00    0.00    1.00
  C37                  CONDUIT     1.307     0  00:05      0.61    8.97    1.00
  C38                  CONDUIT     1.710     0  00:05      0.80   11.92    1.00
  C39                  CONDUIT     4.622     0  00:05      2.16   29.29    1.00
  C40                  CONDUIT     0.000     0  00:00      0.00    0.00    1.00
  C41                  CONDUIT     0.000     0  00:00      0.00    0.00    1.00
  C43                  CONDUIT     0.000     0  00:00      0.00    0.00    1.00
  C44                  CONDUIT     0.359     0  00:05      0.17    3.07    1.00
  C45                  CONDUIT    10.912     0  00:05      5.10   93.63    1.00
  C46                  CONDUIT    11.699     0  00:05      5.47   96.95    1.00
  C48                  CONDUIT     0.000     0  00:05      0.00    0.00    1.00
  C42                  CONDUIT     6.369     0  00:05      2.98   50.50    1.00
  C50                  CONDUIT     0.281     0  00:05      0.13    2.71    1.00
  C49                  CONDUIT     1.127     0  00:05      0.53    9.83    1.00
  C01                  CONDUIT     0.000     0  00:00      0.00    0.00    1.00
  C02                  CONDUIT     0.000     0  00:00      0.00    0.00    1.00
  C03                  CONDUIT     0.495     0  00:05      0.23    3.95    1.00
  C04                  CONDUIT     0.259     0  00:05      0.12    2.03    1.00
  C05                  CONDUIT     0.245     0  00:05      0.11    1.95    1.00
  C06                  CONDUIT     0.000     0  00:00      0.00    0.00    1.00
  C07                  CONDUIT     0.000     0  00:00      0.00    0.00    1.00
  C08                  CONDUIT     0.000     0  00:00      0.00    0.00    1.00
  C09                  CONDUIT     0.484     0  00:05      0.23    4.24    1.00
  C10                  CONDUIT     0.569     0  00:05      0.27    4.54    1.00
  C11                  CONDUIT     0.000     0  00:00      0.00    0.00    1.00
  C12                  CONDUIT     5.537     0  00:05      2.59   47.70    1.00
  C13                  CONDUIT     5.655     0  00:05      2.64   49.21    1.00
  C14                  CONDUIT     3.220     0  00:05      1.51   25.58    1.00
  C15                  CONDUIT     0.615     0  00:05      0.29    4.88    1.00
  C16                  CONDUIT     0.000     0  00:00      0.00    0.00    1.00
  C17                  CONDUIT     5.293     0  00:05      2.48   46.71    1.00
  C18                  CONDUIT     0.000     0  00:00      0.00    0.00    1.00
  C19                  CONDUIT     0.000     0  00:00      0.00    0.00    1.00
  C20                  CONDUIT     5.409     0  00:05      2.53   48.16    1.00
  C21                  CONDUIT     0.000     0  00:05      0.00    0.00    1.00
  C22                  CONDUIT     0.024     0  00:05      0.01    0.19    1.00
  C47                  CONDUIT     0.000     0  00:00      0.00    0.00    1.00
  Cout                 CONDUIT     7.984     0  00:05      3.85   63.04    0.93
  
  
  ***************************
  Flow Classification Summary
  ***************************
  
  -------------------------------------------------------------------------------------
                      Adjusted    ---------- Fraction of Time in Flow Class ---------- 
                       /Actual         Up    Down  Sub   Sup   Up    Down  Norm  Inlet 
  Conduit               Length    Dry  Dry   Dry   Crit  Crit  Crit  Crit  Ltd   Ctrl  
  -------------------------------------------------------------------------------------
  C23                     1.00   0.00  0.00  0.00  1.00  0.00  0.00  0.00  0.00  0.00
  C24                     1.00   0.00  0.00  0.00  1.00  0.00  0.00  0.00  0.00  0.00
  C25                     1.00   0.00  0.00  0.00  1.00  0.00  0.00  0.00  0.00  0.00
  C26                     1.00   0.00  0.00  0.00  1.00  0.00  0.00  0.00  0.00  0.00
  C27                     1.00   0.00  0.00  0.00  1.00  0.00  0.00  0.00  0.00  0.00
  C28                     1.00   0.00  0.00  0.00  1.00  0.00  0.00  0.00  0.00  0.00
  C29                     1.00   0.00  0.00  0.00  1.00  0.00  0.00  0.00  0.00  0.00
  C30                     1.00   0.00  0.00  0.00  1.00  0.00  0.00  0.00  0.00  0.00
  C31                     1.00   0.00  0.00  0.00  1.00  0.00  0.00  0.00  0.00  0.00
  C32                     1.00   0.00  0.00  0.00  1.00  0.00  0.00  0.00  0.00  0.00
  C33                     1.00   0.00  0.00  0.00  1.00  0.00  0.00  0.00  0.00  0.00
  C34                     1.00   0.00  0.00  0.00  1.00  0.00  0.00  0.00  0.00  0.00
  C35                     1.00   0.00  0.00  0.00  1.00  0.00  0.00  0.00  0.00  0.00
  C36                     1.00   0.00  0.00  0.00  1.00  0.00  0.00  0.00  0.00  0.00
  C37                     1.00   0.00  0.00  0.00  1.00  0.00  0.00  0.00  0.00  0.00
  C38                     1.00   0.00  0.00  0.00  1.00  0.00  0.00  0.00  0.00  0.00
  C39                     1.00   0.00  0.00  0.00  1.00  0.00  0.00  0.00  0.00  0.00
  C40                     1.00   0.00  0.00  0.00  1.00  0.00  0.00  0.00  0.00  0.00
  C41                     1.00   0.00  0.00  0.00  1.00  0.00  0.00  0.00  0.00  0.00
  C43                     1.00   0.00  0.00  0.00  1.00  0.00  0.00  0.00  0.00  0.00
  C44                     1.00   0.00  0.00  0.00  1.00  0.00  0.00  0.00  0.00  0.00
  C45                     1.00   0.00  0.00  0.00  1.00  0.00  0.00  0.00  0.00  0.00
  C46                     1.00   0.00  0.00  0.00  1.00  0.00  0.00  0.00  0.00  0.00
  C48                     1.00   0.00  0.00  0.00  1.00  0.00  0.00  0.00  0.00  0.00
  C42                     1.00   0.00  0.00  0.00  1.00  0.00  0.00  0.00  0.00  0.00
  C50                     1.00   0.00  0.00  0.00  1.00  0.00  0.00  0.00  0.00  0.00
  C49                     1.00   0.00  0.00  0.00  1.00  0.00  0.00  0.00  0.00  0.00
  C01                     1.00   0.00  0.00  0.00  1.00  0.00  0.00  0.00  0.00  0.00
  C02                     1.00   0.00  0.00  0.00  1.00  0.00  0.00  0.00  0.00  0.00
  C03                     1.00   0.00  0.00  0.00  1.00  0.00  0.00  0.00  0.00  0.00
  C04                     1.00   0.00  0.00  0.00  1.00  0.00  0.00  0.00  0.00  0.00
  C05                     1.00   0.00  0.00  0.00  1.00  0.00  0.00  0.00  0.00  0.00
  C06                     1.00   0.00  0.00  0.00  1.00  0.00  0.00  0.00  0.00  0.00
  C07                     1.00   0.00  0.00  0.00  1.00  0.00  0.00  0.00  0.00  0.00
  C08                     1.00   0.00  0.00  0.00  1.00  0.00  0.00  0.00  0.00  0.00
  C09                     1.00   0.00  0.00  0.00  1.00  0.00  0.00  0.00  0.00  0.00
  C10                     1.00   0.00  0.00  0.00  1.00  0.00  0.00  0.00  0.00  0.00
  C11                     1.00   0.00  0.00  0.00  1.00  0.00  0.00  0.00  0.00  0.00
  C12                     1.00   0.00  0.00  0.00  1.00  0.00  0.00  0.00  0.00  0.00
  C13                     1.00   0.00  0.00  0.00  1.00  0.00  0.00  0.00  0.00  0.00
  C14                     1.00   0.00  0.00  0.00  1.00  0.00  0.00  0.00  0.00  0.00
  C15                     1.00   0.00  0.00  0.00  1.00  0.00  0.00  0.00  0.00  0.00
  C16                     1.00   0.00  0.00  0.00  1.00  0.00  0.00  0.00  0.00  0.00
  C17                     1.00   0.00  0.00  0.00  1.00  0.00  0.00  0.00  0.00  0.00
  C18                     1.00   0.00  0.00  0.00  1.00  0.00  0.00  0.00  0.00  0.00
  C19                     1.00   0.00  0.00  0.00  1.00  0.00  0.00  0.00  0.00  0.00
  C20                     1.00   0.00  0.00  0.00  1.00  0.00  0.00  0.00  0.00  0.00
  C21                     1.00   0.00  0.00  0.00  1.00  0.00  0.00  0.00  0.00  0.00
  C22                     1.00   0.00  0.00  0.00  1.00  0.00  0.00  0.00  0.00  0.00
  C47                     1.00   0.00  0.00  0.00  1.00  0.00  0.00  0.00  0.00  0.00
  Cout                    1.00   0.00  0.00  0.00  1.00  0.00  0.00  0.00  0.00  0.00
  
  
  *************************
  Conduit Surcharge Summary
  *************************
  
  ----------------------------------------------------------------------------
                                                           Hours        Hours 
                         --------- Hours Full --------   Above Full   Capacity
  Conduit                Both Ends  Upstream  Dnstream   Normal Flow   Limited
  ----------------------------------------------------------------------------
  C23                         1.67      1.67      1.67      0.01         0.01
  C24                         1.67      1.67      1.67      0.82         0.01
  C25                         1.67      1.67      1.67      0.01         0.01
  C26                         1.67      1.67      1.67      0.01         0.01
  C27                         1.67      1.67      1.67      0.01         0.01
  C28                         1.67      1.67      1.67      0.76         0.01
  C29                         1.67      1.67      1.67      0.01         0.01
  C30                         1.67      1.67      1.67      0.01         0.01
  C31                         1.67      1.67      1.67      0.01         0.01
  C32                         1.67      1.67      1.67      0.78         0.01
  C33                         1.67      1.67      1.67      0.73         0.01
  C34                         1.67      1.67      1.67      0.01         0.01
  C35                         1.67      1.67      1.67      0.01         0.01
  C36                         1.67      1.67      1.67      0.01         0.01
  C37                         1.67      1.67      1.67      0.76         0.01
  C38                         1.67      1.67      1.67      0.79         0.01
  C39                         1.67      1.67      1.67      0.76         0.01
  C40                         1.67      1.67      1.67      0.01         0.01
  C41                         1.67      1.67      1.67      0.01         0.01
  C43                         1.67      1.67      1.67      0.01         0.01
  C44                         1.67      1.67      1.67      0.72         0.01
  C45                         1.67      1.67      1.67      1.02         0.01
  C46                         1.67      1.67      1.67      0.99         0.01
  C48                         1.67      1.67      1.67      0.01         0.01
  C42                         1.67      1.67      1.67      0.94         0.01
  C50                         1.67      1.67      1.67      0.75         0.01
  C49                         1.67      1.67      1.67      0.95         0.01
  C01                         1.67      1.67      1.67      0.01         0.01
  C02                         1.67      1.67      1.67      0.01         0.01
  C03                         1.67      1.67      1.67      0.74         0.01
  C04                         1.67      1.67      1.67      0.52         0.01
  C05                         1.67      1.67      1.67      0.51         0.01
  C06                         1.67      1.67      1.67      0.01         0.01
  C07                         1.67      1.67      1.67      0.01         0.01
  C08                         1.67      1.67      1.67      0.01         0.01
  C09                         1.67      1.67      1.67      0.82         0.01
  C10                         1.67      1.67      1.67      0.77         0.01
  C11                         1.67      1.67      1.67      0.01         0.01
  C12                         1.67      1.67      1.67      1.02         0.01
  C13                         1.67      1.67      1.67      1.03         0.01
  C14                         1.67      1.67      1.67      0.93         0.01
  C15                         1.67      1.67      1.67      0.78         0.01
  C16                         1.67      1.67      1.67      0.01         0.01
  C17                         1.67      1.67      1.67      1.04         0.01
  C18                         1.67      1.67      1.67      0.01         0.01
  C19                         1.67      1.67      1.67      0.01         0.01
  C20                         1.67      1.67      1.67      1.05         0.01
  C21                         1.67      1.67      1.67      0.01         0.01
  C22                         1.67      1.67      1.67      0.01         0.01
  C47                         1.67      1.67      1.67      0.01         0.01
  Cout                        0.01      1.67      0.01      1.67         0.01
  
  
  ***************
  Pumping Summary
  ***************
  
  ---------------------------------------------------------------------------------------------------------
                                                  Min       Avg       Max     Total     Power    % Time Off
                        Percent   Number of      Flow      Flow      Flow    Volume     Usage    Pump Curve
  Pump                 Utilized   Start-Ups       CMS       CMS       CMS  10^6 ltr     Kw-hr    Low   High
  ---------------------------------------------------------------------------------------------------------
  P1                       0.00           0      0.00      0.00      0.00     0.000      0.00    0.0    0.0
  

  Analysis begun on:  Thu Oct 31 20:14:14 2024
  Analysis ended on:  Thu Oct 31 20:14:14 2024
  Total elapsed time: < 1 sec