
  EPA STORM WATER MANAGEMENT MODEL - VERSION 5.2 (Build 5.2.4)
  PYSWMM TOOLKIT API - VERSION v1.0 (2023-11-27)
  ------------------------------------------------------------

  WARNING 04: minimum elevation drop used for Conduit C23
  WARNING 04: minimum elevation drop used for Conduit C24
  WARNING 04: minimum elevation drop used for Conduit C25
  WARNING 04: minimum elevation drop used for Conduit C26
  WARNING 04: minimum elevation drop used for Conduit C27
  WARNING 04: minimum elevation drop used for Conduit C28
  WARNING 04: minimum elevation drop used for Conduit C29
  WARNING 04: minimum elevation drop used for Conduit C30
  WARNING 04: minimum elevation drop used for Conduit C31
  WARNING 04: minimum elevation drop used for Conduit C32
  WARNING 04: minimum elevation drop used for Conduit C33
  WARNING 04: minimum elevation drop used for Conduit C34
  WARNING 04: minimum elevation drop used for Conduit C35
  WARNING 04: minimum elevation drop used for Conduit C36
  WARNING 04: minimum elevation drop used for Conduit C37
  WARNING 04: minimum elevation drop used for Conduit C38
  WARNING 04: minimum elevation drop used for Conduit C39
  WARNING 04: minimum elevation drop used for Conduit C40
  WARNING 04: minimum elevation drop used for Conduit C41
  WARNING 04: minimum elevation drop used for Conduit C43
  WARNING 04: minimum elevation drop used for Conduit C44
  WARNING 04: minimum elevation drop used for Conduit C45
  WARNING 04: minimum elevation drop used for Conduit C46
  WARNING 04: minimum elevation drop used for Conduit C48
  WARNING 04: minimum elevation drop used for Conduit C42
  WARNING 04: minimum elevation drop used for Conduit C50
  WARNING 04: minimum elevation drop used for Conduit C49
  WARNING 04: minimum elevation drop used for Conduit C01
  WARNING 04: minimum elevation drop used for Conduit C02
  WARNING 04: minimum elevation drop used for Conduit C03
  WARNING 04: minimum elevation drop used for Conduit C04
  WARNING 04: minimum elevation drop used for Conduit C05
  WARNING 04: minimum elevation drop used for Conduit C06
  WARNING 04: minimum elevation drop used for Conduit C07
  WARNING 04: minimum elevation drop used for Conduit C08
  WARNING 04: minimum elevation drop used for Conduit C09
  WARNING 04: minimum elevation drop used for Conduit C10
  WARNING 04: minimum elevation drop used for Conduit C11
  WARNING 04: minimum elevation drop used for Conduit C12
  WARNING 04: minimum elevation drop used for Conduit C13
  WARNING 04: minimum elevation drop used for Conduit C14
  WARNING 04: minimum elevation drop used for Conduit C15
  WARNING 04: minimum elevation drop used for Conduit C16
  WARNING 04: minimum elevation drop used for Conduit C17
  WARNING 04: minimum elevation drop used for Conduit C18
  WARNING 04: minimum elevation drop used for Conduit C19
  WARNING 04: minimum elevation drop used for Conduit C20
  WARNING 04: minimum elevation drop used for Conduit C21
  WARNING 04: minimum elevation drop used for Conduit C22
  WARNING 04: minimum elevation drop used for Conduit C47
  WARNING 04: minimum elevation drop used for Conduit Cout
  
  ****************
  Analysis Options
  ****************
  Flow Units ............... CMS
  Process Models:
    Rainfall/Runoff ........ YES
    RDII ................... NO
    Snowmelt ............... NO
    Groundwater ............ NO
    Flow Routing ........... YES
    Ponding Allowed ........ NO
    Water Quality .......... NO
  Infiltration Method ...... HORTON
  Flow Routing Method ...... DYNWAVE
  Surcharge Method ......... EXTRAN
  Starting Date ............ 02/05/2023 13:00:00
  Ending Date .............. 02/05/2023 13:40:00
  Antecedent Dry Days ...... 0.0
  Report Time Step ......... 00:10:00
  Wet Time Step ............ 00:05:00
  Dry Time Step ............ 01:00:00
  Routing Time Step ........ 300.00 sec
  Variable Time Step ....... YES
  Maximum Trials ........... 8
  Number of Threads ........ 1
  Head Tolerance ........... 0.001524 m
  
  
  *********************
  Rainfall File Summary
  *********************
  Station    First        Last         Recording   Periods    Periods    Periods
  ID         Date         Date         Frequency  w/Precip    Missing    Malfunc.
  -------------------------------------------------------------------------------
  981        02/05/2023   02/05/2023      10 min         5          0          0

  
  
  **************************        Volume         Depth
  Runoff Quantity Continuity     hectare-m            mm
  **************************     ---------       -------
  Total Precipitation ......        72.387       723.900
  Evaporation Loss .........         0.000         0.000
  Infiltration Loss ........         0.000         0.000
  Surface Runoff ...........        66.457       664.595
  Final Storage ............         8.227        82.269
  Continuity Error (%) .....        -3.172
  
  
  **************************        Volume        Volume
  Flow Routing Continuity        hectare-m      10^6 ltr
  **************************     ---------     ---------
  Dry Weather Inflow .......         0.000         0.000
  Wet Weather Inflow .......        55.316       553.162
  Groundwater Inflow .......         0.000         0.000
  RDII Inflow ..............         0.000         0.000
  External Inflow ..........         0.000         0.000
  External Outflow .........         1.637        16.370
  Flooding Loss ............        53.925       539.251
  Evaporation Loss .........         0.000         0.000
  Exfiltration Loss ........         0.000         0.000
  Initial Stored Volume ....         0.046         0.463
  Final Stored Volume ......         1.883        18.831
  Continuity Error (%) .....        -3.762
  
  
  *************************
  Highest Continuity Errors
  *************************
  Node J30 (-118.93%)
  Node J17 (-38.16%)
  Node J11 (-30.31%)
  Node J24 (28.94%)
  Node J16 (-20.28%)
  
  
  ***************************
  Time-Step Critical Elements
  ***************************
  Link Cout (92.31%)
  Link C34 (1.28%)
  Link C40 (1.28%)
  Link C25 (1.28%)
  
  
  ********************************
  Highest Flow Instability Indexes
  ********************************
  Link C02 (7)
  Link C09 (7)
  Link C04 (5)
  Link C03 (5)
  Link C12 (5)
  
  
  *********************************
  Most Frequent Nonconverging Nodes
  *********************************
  Node OF (8.33%)
  Node J23 (7.05%)
  Node J22 (7.05%)
  Node J16 (6.41%)
  Node J6 (5.77%)
  
  
  *************************
  Routing Time Step Summary
  *************************
  Minimum Time Step           :     4.36 sec
  Average Time Step           :    15.38 sec
  Maximum Time Step           :   300.00 sec
  % of Time in Steady State   :     0.00
  Average Iterations per Step :     2.60
  % of Steps Not Converging   :     8.33
  Time Step Frequencies       :
     300.000 - 83.462 sec      :     0.65 %
     83.462 - 23.220 sec      :     0.00 %
     23.220 -  6.460 sec      :    98.71 %
      6.460 -  1.797 sec      :     0.65 %
      1.797 -  0.500 sec      :     0.00 %
  
  
  ***************************
  Subcatchment Runoff Summary
  ***************************
  
  ------------------------------------------------------------------------------------------------------------------------------
                            Total      Total      Total      Total     Imperv       Perv      Total       Total     Peak  Runoff
                           Precip      Runon       Evap      Infil     Runoff     Runoff     Runoff      Runoff   Runoff   Coeff
  Subcatchment                 mm         mm         mm         mm         mm         mm         mm    10^6 ltr      CMS
  ------------------------------------------------------------------------------------------------------------------------------
  S1                       723.90       0.00       0.00       0.00       7.17     716.73     723.90      182.61   181.56   1.000
  S2                       723.90       0.00       0.00       0.00       6.59     712.08     718.67        5.58     5.59   0.993
  S3                       723.90       0.00       0.00       0.00       6.59     717.31     723.90        1.50     1.49   1.000
  S4                       723.90       0.00       0.00       0.00       6.59     717.31     723.90        1.48     1.48   1.000
  S5                       723.90       0.00       0.00       0.00       6.59     717.31     723.90        2.16     2.15   1.000
  S6                       723.90       0.00       0.00       0.00       6.59     717.31     723.90        5.96     5.93   1.000
  S7                       723.90       0.00       0.00       0.00       6.59     717.31     723.90        1.12     1.12   1.000
  S8                       723.90       0.00       0.00       0.00       6.59     717.31     723.90        3.53     3.51   1.000
  S9                       723.90       0.00       0.00       0.00       6.59     717.31     723.90        4.36     4.33   1.000
  S10                      723.90       0.00       0.00       0.00       0.00     717.31     717.31        1.01     1.01   0.991
  S11                      723.90       0.00       0.00       0.00       6.59     652.91     659.49        9.65    10.45   0.911
  S12                      723.90       0.00       0.00       0.00       6.59     717.31     723.90        6.28     6.25   1.000
  S13                      723.90       0.00       0.00       0.00       0.00     717.31     717.31        6.05     6.02   0.991
  S14                      723.90       0.00       0.00       0.00       6.08     717.82     723.90        5.81     5.78   1.000
  S15                      723.90       0.00       0.00       0.00       6.08     717.82     723.90        5.43     5.40   1.000
  S16                      723.90       0.00       0.00       0.00       5.57     699.57     705.14       12.45    12.71   0.974
  S17                      723.90       0.00       0.00       0.00       5.57     570.44     576.01       19.61    23.23   0.796
  S18                      723.90       0.00       0.00       0.00       5.57     718.21     723.79        0.93     0.93   1.000
  S19                      723.90       0.00       0.00       0.00       5.57       0.00       5.57        0.01     0.01   0.008
  S20                      723.90       0.00       0.00       0.00       5.57     718.25     723.82        0.74     0.73   1.000
  S21                      723.90       0.00       0.00       0.00       5.57     679.25     684.82       11.35    11.91   0.946
  S22                      723.90       0.00       0.00       0.00       5.57     718.29     723.87        0.24     0.24   1.000
  S23                      723.90       0.00       0.00       0.00       5.57     718.33     723.90        0.28     0.28   1.000
  S24                      723.90       0.00       0.00       0.00       5.57     718.33     723.90        0.35     0.35   1.000
  S25                      723.90       0.00       0.00       0.00       5.57     718.33     723.90        0.43     0.42   1.000
  S26                      723.90       0.00       0.00       0.00       5.57     718.33     723.90        0.50     0.50   1.000
  S27                      723.90       0.00       0.00       0.00       5.57     716.80     722.37        6.00     5.98   0.998
  S28                      723.90       0.00       0.00       0.00       5.57     682.81     688.39        6.11     6.38   0.951
  S29                      723.90       0.00       0.00       0.00       5.57     718.29     723.86        0.67     0.66   1.000
  S30                      723.90       0.00       0.00       0.00       5.57     532.41     537.99       34.27    41.99   0.743
  S31                      723.90       0.00       0.00       0.00       5.79     718.11     723.90        9.81     9.75   1.000
  S32                      723.90       0.00       0.00       0.00       5.79     718.11     723.90        3.02     3.00   1.000
  S33                      723.90       0.00       0.00       0.00       6.80     717.10     723.90        2.25     2.24   1.000
  S34                      723.90       0.00       0.00       0.00       6.80     717.10     723.90        2.38     2.37   1.000
  S35                      723.90       0.00       0.00       0.00       6.59     717.31     723.90        2.91     2.89   1.000
  S36                      723.90       0.00       0.00       0.00       6.59     717.31     723.90        1.19     1.19   1.000
  S37                      723.90       0.00       0.00       0.00       6.59     717.31     723.90        2.61     2.59   1.000
  S38                      723.90       0.00       0.00       0.00       6.59     717.31     723.90        0.12     0.12   1.000
  S39                      723.90       0.00       0.00       0.00       6.59     717.31     723.90        2.97     2.95   1.000
  S40                      723.90       0.00       0.00       0.00       6.59     717.31     723.90        1.02     1.01   1.000
  S41                      723.90       0.00       0.00       0.00       6.59     717.31     723.90        1.64     1.63   1.000
  S42                      723.90       0.00       0.00       0.00       6.59     717.31     723.90        2.29     2.27   1.000
  S43                      723.90       0.00       0.00       0.00       6.59     717.31     723.90        5.21     5.18   1.000
  S44                      723.90       0.00       0.00       0.00       6.59     717.31     723.90        3.78     3.76   1.000
  S45                      723.90       0.00       0.00       0.00       6.59     717.31     723.90        0.38     0.38   1.000
  S46                      723.90       0.00       0.00       0.00       6.59     717.31     723.90        3.50     3.48   1.000
  S47                      723.90       0.00       0.00       0.00       6.59     717.31     723.90        7.08     7.04   1.000
  S48                      723.90       0.00       0.00       0.00       6.59     717.31     723.90        8.18     8.13   1.000
  S49                      723.90       0.00       0.00       0.00       6.59     717.31     723.90        4.97     4.94   1.000
  S50                      723.90       0.00       0.00       0.00       6.59     717.31     723.90        4.10     4.07   1.000
  S51                      723.90       0.00       0.00       0.00       6.59     717.31     723.90        2.42     2.40   1.000
  S52                      723.90       0.00       0.00       0.00       6.59     717.31     723.90        6.41     6.37   1.000
  S53                      723.90       0.00       0.00       0.00       6.59     683.29     689.87        8.40     8.76   0.953
  S54                      723.90       0.00       0.00       0.00       6.59     709.51     716.10        3.27     3.29   0.989
  S55                      723.90       0.00       0.00       0.00       6.59     717.31     723.90        0.28     0.27   1.000
  S56                      723.90       0.00       0.00       0.00       6.59     717.28     723.87        0.28     0.27   1.000
  S57                      723.90       0.00       0.00       0.00       6.59     717.31     723.90        3.74     3.72   1.000
  S58                      723.90       0.00       0.00       0.00       6.59     717.31     723.90        4.81     4.78   1.000
  S59                      723.90       0.00       0.00       0.00       6.59     717.31     723.90        4.67     4.64   1.000
  S60                      723.90       0.00       0.00       0.00       5.57     714.26     719.83        2.83     2.83   0.994
  S61                      723.90       0.00       0.00       0.00       5.57       0.00       5.57        0.02     0.02   0.008
  S62                      723.90       0.00       0.00       0.00       5.57     506.29     511.87       27.43    34.35   0.707
  S63                      723.90       0.00       0.00       0.00       5.57     718.33     723.90        6.80     6.77   1.000
  S64                      723.90       0.00       0.00       0.00       5.57     718.33     723.90       18.42    18.32   1.000
  S65                      723.90       0.00       0.00       0.00       5.57     718.33     723.90        2.94     2.92   1.000
  S66                      723.90       0.00       0.00       0.00       5.57     718.33     723.90        4.74     4.71   1.000
  S67                      723.90       0.00       0.00       0.00       5.57     718.33     723.90        8.86     8.81   1.000
  S68                      723.90       0.00       0.00       0.00       5.57     718.33     723.90       10.39    10.33   1.000
  S69                      723.90       0.00       0.00       0.00       5.57       0.00       5.57        0.14     0.14   0.008
  S70                      723.90       0.00       0.00       0.00       5.57     677.61     683.18       17.88    18.80   0.944
  S71                      723.90       0.00       0.00       0.00       6.59     717.31     723.90       10.65    10.59   1.000
  S72                      723.90       0.00       0.00       0.00       5.57     702.62     708.19        3.51     3.57   0.978
  S73                      723.90       0.00       0.00       0.00       5.57     718.33     723.90       15.17    15.09   1.000
  S74                      723.90       0.00       0.00       0.00       5.57       0.00       5.57        0.04     0.04   0.008
  S75                      723.90       0.00       0.00       0.00       5.57     718.33     723.90        0.49     0.48   1.000
  S76                      723.90       0.00       0.00       0.00       5.57     718.33     723.90        9.56     9.51   1.000
  S77                      723.90       0.00       0.00       0.00       5.57     718.33     723.90        7.74     7.69   1.000
  S78                      723.90       0.00       0.00       0.00       5.57     718.33     723.90        5.61     5.58   1.000
  S79                      723.90       0.00       0.00       0.00       6.59     717.31     723.90        4.92     4.89   1.000
  S80                      723.90       0.00       0.00       0.00       5.57     716.96     722.54        1.99     1.99   0.998
  S81                      723.90       0.00       0.00       0.00       5.57     718.33     723.90        8.19     8.14   1.000
  S82                      723.90       0.00       0.00       0.00       5.57     718.33     723.90        7.99     7.95   1.000
  S83                      723.90       0.00       0.00       0.00       5.57     718.33     723.90        5.14     5.11   1.000
  S84                      723.90       0.00       0.00       0.00       6.59     717.31     723.90        3.36     3.34   1.000
  S85                      723.90       0.00       0.00       0.00       6.59     690.84     697.43        8.62     8.89   0.963
  S86                      723.90       0.00       0.00       0.00       0.00     717.31     717.31        8.30     8.25   0.991
  S87                      723.90       0.00       0.00       0.00       6.59     717.31     723.90        8.99     8.94   1.000
  S88                      723.90       0.00       0.00       0.00       6.59     717.31     723.90        1.62     1.61   1.000
  S89                      723.90       0.00       0.00       0.00       6.59     717.31     723.90        7.32     7.28   1.000
  S90                      723.90       0.00       0.00       0.00       0.00     717.31     717.31        3.52     3.50   0.991
  S91                      723.90       0.00       0.00       0.00       6.59     717.31     723.90        1.19     1.19   1.000
  
  
  ******************
  Node Depth Summary
  ******************
  
  ---------------------------------------------------------------------------------
                                 Average  Maximum  Maximum  Time of Max    Reported
                                   Depth    Depth      HGL   Occurrence   Max Depth
  Node                 Type       Meters   Meters   Meters  days hr:min      Meters
  ---------------------------------------------------------------------------------
  J7                   JUNCTION     2.44     2.50     2.50     0  00:05        2.50
  J13                  JUNCTION     2.39     2.50     2.50     0  00:06        2.50
  J19                  JUNCTION     2.48     2.50     2.50     0  00:05        2.50
  J25                  JUNCTION     2.46     2.50     2.50     0  00:05        2.50
  J1                   JUNCTION     2.46     2.50     2.50     0  00:05        2.50
  J2                   JUNCTION     2.45     2.50     2.50     0  00:05        2.50
  J3                   JUNCTION     2.43     2.50     2.50     0  00:05        2.50
  J4                   JUNCTION     2.46     2.50     2.50     0  00:05        2.50
  J5                   JUNCTION     2.46     2.50     2.50     0  00:05        2.50
  J6                   JUNCTION     2.43     2.50     2.50     0  00:10        2.50
  J8                   JUNCTION     2.45     2.50     2.50     0  00:05        2.50
  J9                   JUNCTION     2.46     2.50     2.50     0  00:05        2.50
  J10                  JUNCTION     2.48     2.50     2.50     0  00:05        2.50
  J11                  JUNCTION     2.38     2.50     2.50     0  00:06        2.50
  J12                  JUNCTION     2.42     2.50     2.50     0  00:07        2.50
  J14                  JUNCTION     2.46     2.50     2.50     0  00:05        2.50
  J15                  JUNCTION     2.45     2.50     2.50     0  00:05        2.50
  J16                  JUNCTION     2.46     2.50     2.50     0  00:05        2.50
  J17                  JUNCTION     2.43     2.50     2.50     0  00:07        2.50
  J18                  JUNCTION     2.44     2.50     2.50     0  00:05        2.50
  J20                  JUNCTION     2.48     2.50     2.50     0  00:05        2.50
  J21                  JUNCTION     2.48     2.50     2.50     0  00:05        2.50
  J22                  JUNCTION     2.47     2.50     2.50     0  00:07        2.50
  J23                  JUNCTION     2.46     2.50     2.50     0  00:07        2.50
  J24                  JUNCTION     2.48     2.50     2.50     0  00:05        2.50
  J26                  JUNCTION     2.44     2.50     2.50     0  00:05        2.50
  J27                  JUNCTION     2.42     2.50     2.50     0  00:05        2.50
  J29                  JUNCTION     2.43     2.50     2.50     0  00:05        2.50
  J30                  JUNCTION     2.41     2.50     2.50     0  00:06        2.50
  J31                  JUNCTION     2.40     2.50     2.50     0  00:07        2.50
  J33                  JUNCTION     2.40     2.50     2.50     0  00:06        2.50
  J32                  JUNCTION     2.42     2.50     2.50     0  00:05        2.50
  J28                  JUNCTION     2.45     2.50     2.50     0  00:05        2.50
  OF                   OUTFALL      1.36     1.37     1.37     0  00:18        1.37
  
  
  *******************
  Node Inflow Summary
  *******************
  
  -------------------------------------------------------------------------------------------------
                                  Maximum  Maximum                  Lateral       Total        Flow
                                  Lateral    Total  Time of Max      Inflow      Inflow     Balance
                                   Inflow   Inflow   Occurrence      Volume      Volume       Error
  Node                 Type           CMS      CMS  days hr:min    10^6 ltr    10^6 ltr     Percent
  -------------------------------------------------------------------------------------------------
  J7                   JUNCTION    46.066   46.155     0  00:40        31.2        32.5       0.998
  J13                  JUNCTION     4.105    6.874     0  00:06        3.38        5.51       1.745
  J19                  JUNCTION   194.584  194.584     0  00:40         164         164       1.126
  J25                  JUNCTION    23.133   23.453     0  00:40        15.8          18      -6.866
  J1                   JUNCTION    16.334   16.549     0  00:35        13.8        14.4       1.649
  J2                   JUNCTION    12.272   12.663     0  00:35        10.3        12.1       1.155
  J3                   JUNCTION     0.547   12.162     0  00:05       0.461        1.81      18.736
  J4                   JUNCTION    35.534   35.754     0  00:35          30        32.1      -3.410
  J5                   JUNCTION    29.380   39.387     0  00:05        24.8        33.3      10.452
  J6                   JUNCTION    12.855   13.082     0  00:35        10.8        13.3      -7.154
  J8                   JUNCTION    19.779   19.824     0  00:35        16.7        16.8     -10.435
  J9                   JUNCTION     8.887   13.112     0  00:05        7.17        9.87      10.077
  J10                  JUNCTION    13.272   49.205     0  00:05        11.2        20.9      20.132
  J11                  JUNCTION    14.259   15.769     0  00:06          12        16.4     -23.258
  J12                  JUNCTION    15.086   15.488     0  00:35        12.7        14.6       0.267
  J14                  JUNCTION    12.783   12.983     0  00:35        10.8        12.3      -6.519
  J15                  JUNCTION    18.279   18.620     0  00:40          15        17.1      -2.563
  J16                  JUNCTION    10.587   10.929     0  00:35        8.93        10.9     -16.857
  J17                  JUNCTION     0.138    5.073     0  00:06       0.116        2.73     -27.621
  J18                  JUNCTION     0.482    2.579     0  00:06       0.407         1.9       7.358
  J20                  JUNCTION    35.667   35.831     0  00:40        29.2          31       2.928
  J21                  JUNCTION    11.799   12.143     0  00:35        9.95        12.7       4.610
  J22                  JUNCTION    24.177   24.365     0  00:40        19.4        21.1       1.751
  J23                  JUNCTION    12.705   12.892     0  00:40        10.4        12.6       4.267
  J24                  JUNCTION     1.676   19.507     0  00:05        1.41        5.06      40.725
  J26                  JUNCTION    10.422   10.629     0  00:35        8.79        9.79       2.621
  J27                  JUNCTION     9.141   10.583     0  00:05        7.67        8.93       5.432
  J29                  JUNCTION    14.992   15.358     0  00:35        12.6        16.2       6.803
  J30                  JUNCTION     0.000    3.524     0  00:06           0        1.36     -54.324
  J31                  JUNCTION    41.787   42.099     0  00:40        27.4        28.9      -2.513
  J33                  JUNCTION    14.751   14.751     0  00:40        12.4        12.5     -24.824
  J32                  JUNCTION     6.730   29.331     0  00:05        5.67        12.8      21.864
  J28                  JUNCTION    10.760   10.999     0  00:35        9.07        10.4       5.867
  OF                   OUTFALL      0.000    7.351     0  00:20           0        16.4       0.000
  
  
  **********************
  Node Surcharge Summary
  **********************
  
  Surcharging occurs when water rises above the top of the highest conduit.
  ---------------------------------------------------------------------
                                               Max. Height   Min. Depth
                                   Hours       Above Crown    Below Rim
  Node                 Type      Surcharged         Meters       Meters
  ---------------------------------------------------------------------
  J7                   JUNCTION        0.66          0.850        0.000
  J13                  JUNCTION        0.57          0.850        0.000
  J19                  JUNCTION        0.67          0.850        0.000
  J25                  JUNCTION        0.66          0.850        0.000
  J1                   JUNCTION        0.66          0.850        0.000
  J2                   JUNCTION        0.66          0.850        0.000
  J3                   JUNCTION        0.57          0.850        0.000
  J4                   JUNCTION        0.66          0.850        0.000
  J5                   JUNCTION        0.66          0.850        0.000
  J6                   JUNCTION        0.67          0.850        0.000
  J8                   JUNCTION        0.65          0.850        0.000
  J9                   JUNCTION        0.66          0.850        0.000
  J10                  JUNCTION        0.67          0.850        0.000
  J11                  JUNCTION        0.64          0.850        0.000
  J12                  JUNCTION        0.64          0.850        0.000
  J14                  JUNCTION        0.66          0.850        0.000
  J15                  JUNCTION        0.65          0.850        0.000
  J16                  JUNCTION        0.67          0.850        0.000
  J17                  JUNCTION        0.66          0.850        0.000
  J18                  JUNCTION        0.67          0.850        0.000
  J20                  JUNCTION        0.67          0.850        0.000
  J21                  JUNCTION        0.67          0.850        0.000
  J22                  JUNCTION        0.67          0.850        0.000
  J23                  JUNCTION        0.67          0.850        0.000
  J24                  JUNCTION        0.67          0.850        0.000
  J26                  JUNCTION        0.58          0.850        0.000
  J27                  JUNCTION        0.57          0.850        0.000
  J29                  JUNCTION        0.65          0.850        0.000
  J30                  JUNCTION        0.64          0.850        0.000
  J31                  JUNCTION        0.64          0.850        0.000
  J33                  JUNCTION        0.65          0.850        0.000
  J32                  JUNCTION        0.65          0.850        0.000
  J28                  JUNCTION        0.66          0.850        0.000
  
  
  *********************
  Node Flooding Summary
  *********************
  
  Flooding refers to all water that overflows a node, whether it ponds or not.
  --------------------------------------------------------------------------
                                                             Total   Maximum
                                 Maximum   Time of Max       Flood    Ponded
                        Hours       Rate    Occurrence      Volume     Depth
  Node                 Flooded       CMS   days hr:min    10^6 ltr    Meters
  --------------------------------------------------------------------------
  J7                      0.65    45.834      0  00:40      30.910     0.000
  J13                     0.57     5.876      0  00:06       4.204     0.000
  J19                     0.67   187.032      0  00:40     144.836     0.000
  J25                     0.56    23.172      0  00:40      16.128     0.000
  J1                      0.64    16.353      0  00:40      13.268     0.000
  J2                      0.65    12.576      0  00:35      11.801     0.000
  J3                      0.56     4.504      0  00:05       0.453     0.000
  J4                      0.56    35.178      0  00:40      27.438     0.000
  J5                      0.65    29.462      0  00:35      31.124     0.000
  J6                      0.50    12.513      0  00:40       9.202     0.000
  J8                      0.57    19.529      0  00:40      15.166     0.000
  J9                      0.57     8.780      0  00:40       6.763     0.000
  J10                     0.66    31.476      0  00:05      17.662     0.000
  J11                     0.56    14.698      0  00:35      14.198     0.000
  J12                     0.55    15.271      0  00:35      13.055     0.000
  J14                     0.57    12.632      0  00:40      10.029     0.000
  J15                     0.57    18.437      0  00:40      15.172     0.000
  J16                     0.56    10.573      0  00:40       8.509     0.000
  J17                     0.55     0.986      0  00:09       1.177     0.000
  J18                     0.44     0.762      0  00:05       0.434     0.000
  J20                     0.67    35.685      0  00:40      30.586     0.000
  J21                     0.65    11.925      0  00:35      10.929     0.000
  J22                     0.55    23.986      0  00:40      18.255     0.000
  J23                     0.55    12.529      0  00:40       9.485     0.000
  J24                     0.65    12.029      0  00:05       4.554     0.000
  J26                     0.56    10.416      0  00:40       8.438     0.000
  J27                     0.57     9.009      0  00:40       7.263     0.000
  J29                     0.64    14.937      0  00:40      13.848     0.000
  J30                     0.09     1.880      0  00:06       0.128     0.000
  J31                     0.55    41.904      0  00:40      28.738     0.000
  J33                     0.57    14.585      0  00:40      11.489     0.000
  J32                     0.64    14.563      0  00:05      12.406     0.000
  J28                     0.57    10.800      0  00:40       8.886     0.000
  
  
  ***********************
  Outfall Loading Summary
  ***********************
  
  -----------------------------------------------------------
                         Flow       Avg       Max       Total
                         Freq      Flow      Flow      Volume
  Outfall Node           Pcnt       CMS       CMS    10^6 ltr
  -----------------------------------------------------------
  OF                   100.00     7.276     7.351      16.370
  -----------------------------------------------------------
  System               100.00     7.276     7.351      16.370
  
  
  ********************
  Link Flow Summary
  ********************
  
  -----------------------------------------------------------------------------
                                 Maximum  Time of Max   Maximum    Max/    Max/
                                  |Flow|   Occurrence   |Veloc|    Full    Full
  Link                 Type          CMS  days hr:min     m/sec    Flow   Depth
  -----------------------------------------------------------------------------
  P1                   PUMP        0.000     0  00:00                          
  C23                  CONDUIT     1.038     0  00:05      0.49    9.03    1.00
  C24                  CONDUIT    19.039     0  00:05     10.97  164.94    1.00
  C25                  CONDUIT     5.299     0  00:05      3.05   42.34    1.00
  C26                  CONDUIT    23.695     0  00:05     13.66  185.38    1.00
  C27                  CONDUIT    11.677     0  00:05      5.46   96.07    1.00
  C28                  CONDUIT     2.346     0  00:05      1.10   16.17    1.00
  C29                  CONDUIT     1.787     0  00:05      0.86   12.59    1.00
  C30                  CONDUIT     5.709     0  00:05      2.67   50.16    1.00
  C31                  CONDUIT     9.299     0  00:05      4.35   81.38    1.00
  C32                  CONDUIT     5.066     0  00:05      2.94   32.74    1.00
  C33                  CONDUIT     7.179     0  00:05      3.80   42.00    1.00
  C34                  CONDUIT     4.590     0  00:05      2.15   36.53    1.00
  C35                  CONDUIT     6.292     0  00:05      2.94   66.90    1.00
  C36                  CONDUIT     2.233     0  00:06      1.06   21.06    1.00
  C37                  CONDUIT     1.636     0  00:06      0.77   11.23    1.00
  C38                  CONDUIT     4.719     0  00:05      2.58   32.90    1.00
  C39                  CONDUIT     2.725     0  00:05      2.20   17.27    1.00
  C40                  CONDUIT     1.810     0  00:06      0.85   12.90    1.00
  C41                  CONDUIT     2.730     0  00:06      2.55   21.17    1.00
  C43                  CONDUIT    28.737     0  00:05     22.35  219.15    1.00
  C44                  CONDUIT    11.002     0  00:05      5.14   93.92    1.00
  C45                  CONDUIT     9.874     0  00:05      4.62   84.72    1.00
  C46                  CONDUIT     1.736     0  00:06      0.82   14.38    1.00
  C48                  CONDUIT     5.997     0  00:06      2.80   47.36    1.00
  C42                  CONDUIT     3.006     0  00:06      1.42   23.84    1.00
  C50                  CONDUIT     0.982     0  00:06      0.46    9.49    1.00
  C49                  CONDUIT     4.539     0  00:05      2.20   39.63    1.00
  C01                  CONDUIT     0.348     0  00:07      0.16    2.86    1.00
  C02                  CONDUIT     2.910     0  00:06      1.36   23.02    1.00
  C03                  CONDUIT     2.825     0  00:06      1.32   22.56    1.00
  C04                  CONDUIT     4.252     0  00:05      2.01   33.44    1.00
  C05                  CONDUIT    13.070     0  00:05      6.11  104.22    1.00
  C06                  CONDUIT     6.033     0  00:05      2.82   52.98    1.00
  C07                  CONDUIT     7.880     0  00:05      3.68   69.12    1.00
  C08                  CONDUIT     3.985     0  00:05      1.86   32.61    1.00
  C09                  CONDUIT     1.482     0  00:06      0.69   12.98    1.00
  C10                  CONDUIT     2.604     0  00:05      1.22   20.76    1.00
  C11                  CONDUIT     3.102     0  00:05      1.45   27.26    1.00
  C12                  CONDUIT     2.582     0  00:05      1.21   22.24    1.00
  C13                  CONDUIT     2.536     0  00:06      1.19   22.07    1.00
  C14                  CONDUIT     3.485     0  00:05      1.63   27.69    1.00
  C15                  CONDUIT     1.880     0  00:06      0.88   14.94    1.00
  C16                  CONDUIT     6.290     0  00:05      2.94   55.21    1.00
  C17                  CONDUIT     5.089     0  00:06      2.47   44.91    1.00
  C18                  CONDUIT     1.217     0  00:05      0.57   10.82    1.00
  C19                  CONDUIT     6.068     0  00:05      2.84   48.21    1.00
  C20                  CONDUIT     1.624     0  00:06      0.77   14.46    1.00
  C21                  CONDUIT     5.116     0  00:05      2.63   48.33    1.00
  C22                  CONDUIT     4.254     0  00:06      2.16   33.58    1.00
  C47                  CONDUIT     6.741     0  00:05      3.15   69.29    1.00
  Cout                 CONDUIT     7.351     0  00:20      3.59   58.05    1.00
  
  
  ***************************
  Flow Classification Summary
  ***************************
  
  -------------------------------------------------------------------------------------
                      Adjusted    ---------- Fraction of Time in Flow Class ---------- 
                       /Actual         Up    Down  Sub   Sup   Up    Down  Norm  Inlet 
  Conduit               Length    Dry  Dry   Dry   Crit  Crit  Crit  Crit  Ltd   Ctrl  
  -------------------------------------------------------------------------------------
  C23                     1.00   0.00  0.00  0.00  1.00  0.00  0.00  0.00  0.01  0.00
  C24                     1.00   0.00  0.00  0.00  1.00  0.00  0.00  0.00  0.01  0.00
  C25                     1.00   0.00  0.00  0.00  1.00  0.00  0.00  0.00  0.00  0.00
  C26                     1.00   0.00  0.00  0.00  0.97  0.03  0.00  0.00  0.00  0.00
  C27                     1.00   0.00  0.00  0.00  1.00  0.00  0.00  0.00  0.01  0.00
  C28                     1.00   0.00  0.00  0.00  1.00  0.00  0.00  0.00  0.00  0.00
  C29                     1.00   0.00  0.00  0.00  1.00  0.00  0.00  0.00  0.00  0.00
  C30                     1.00   0.00  0.00  0.00  0.88  0.13  0.00  0.00  0.13  0.00
  C31                     1.00   0.00  0.00  0.00  1.00  0.00  0.00  0.00  0.01  0.00
  C32                     1.00   0.00  0.00  0.00  1.00  0.00  0.00  0.00  0.00  0.00
  C33                     1.00   0.00  0.00  0.00  1.00  0.00  0.00  0.00  0.00  0.00
  C34                     1.00   0.00  0.00  0.00  1.00  0.00  0.00  0.00  0.01  0.00
  C35                     1.00   0.00  0.00  0.00  1.00  0.00  0.00  0.00  0.00  0.00
  C36                     1.00   0.00  0.00  0.00  1.00  0.00  0.00  0.00  0.00  0.00
  C37                     1.00   0.00  0.00  0.00  1.00  0.00  0.00  0.00  0.00  0.00
  C38                     1.00   0.00  0.00  0.00  0.88  0.13  0.00  0.00  0.00  0.00
  C39                     1.00   0.00  0.00  0.00  1.00  0.00  0.00  0.00  0.00  0.00
  C40                     1.00   0.00  0.00  0.00  0.88  0.13  0.00  0.00  0.00  0.00
  C41                     1.00   0.00  0.00  0.00  1.00  0.00  0.00  0.00  0.00  0.00
  C43                     1.00   0.00  0.00  0.00  1.00  0.00  0.00  0.00  0.01  0.00
  C44                     1.00   0.00  0.00  0.00  1.00  0.00  0.00  0.00  0.01  0.00
  C45                     1.00   0.00  0.00  0.00  1.00  0.00  0.00  0.00  0.00  0.00
  C46                     1.00   0.00  0.00  0.00  1.00  0.00  0.00  0.00  0.00  0.00
  C48                     1.00   0.00  0.00  0.00  1.00  0.00  0.00  0.00  0.00  0.00
  C42                     1.00   0.00  0.00  0.00  1.00  0.00  0.00  0.00  0.00  0.00
  C50                     1.00   0.00  0.00  0.00  1.00  0.00  0.00  0.00  0.00  0.00
  C49                     1.00   0.00  0.00  0.00  1.00  0.00  0.00  0.00  0.00  0.00
  C01                     1.00   0.00  0.00  0.00  1.00  0.00  0.00  0.00  0.00  0.00
  C02                     1.00   0.00  0.00  0.00  1.00  0.00  0.00  0.00  0.00  0.00
  C03                     1.00   0.00  0.00  0.00  1.00  0.00  0.00  0.00  0.00  0.00
  C04                     1.00   0.00  0.00  0.00  1.00  0.00  0.00  0.00  0.00  0.00
  C05                     1.00   0.00  0.00  0.00  1.00  0.00  0.00  0.00  0.01  0.00
  C06                     1.00   0.00  0.00  0.00  1.00  0.00  0.00  0.00  0.00  0.00
  C07                     1.00   0.00  0.00  0.00  1.00  0.00  0.00  0.00  0.00  0.00
  C08                     1.00   0.00  0.00  0.00  1.00  0.00  0.00  0.00  0.00  0.00
  C09                     1.00   0.00  0.00  0.00  1.00  0.00  0.00  0.00  0.00  0.00
  C10                     1.00   0.00  0.00  0.00  1.00  0.00  0.00  0.00  0.00  0.00
  C11                     1.00   0.00  0.00  0.00  1.00  0.00  0.00  0.00  0.00  0.00
  C12                     1.00   0.00  0.00  0.00  1.00  0.00  0.00  0.00  0.00  0.00
  C13                     1.00   0.00  0.00  0.00  1.00  0.00  0.00  0.00  0.00  0.00
  C14                     1.00   0.00  0.00  0.00  1.00  0.00  0.00  0.00  0.00  0.00
  C15                     1.00   0.00  0.00  0.00  1.00  0.00  0.00  0.00  0.00  0.00
  C16                     1.00   0.00  0.00  0.00  1.00  0.00  0.00  0.00  0.00  0.00
  C17                     1.00   0.00  0.00  0.00  1.00  0.00  0.00  0.00  0.00  0.00
  C18                     1.00   0.00  0.00  0.00  1.00  0.00  0.00  0.00  0.00  0.00
  C19                     1.00   0.00  0.00  0.00  1.00  0.00  0.00  0.00  0.01  0.00
  C20                     1.00   0.00  0.00  0.00  1.00  0.00  0.00  0.00  0.00  0.00
  C21                     1.00   0.00  0.00  0.00  1.00  0.00  0.00  0.00  0.00  0.00
  C22                     1.00   0.00  0.00  0.00  1.00  0.00  0.00  0.00  0.00  0.00
  C47                     1.00   0.00  0.00  0.00  1.00  0.00  0.00  0.00  0.00  0.00
  Cout                    1.00   0.00  0.00  0.00  1.00  0.00  0.00  0.00  0.13  0.00
  
  
  *************************
  Conduit Surcharge Summary
  *************************
  
  ----------------------------------------------------------------------------
                                                           Hours        Hours 
                         --------- Hours Full --------   Above Full   Capacity
  Conduit                Both Ends  Upstream  Dnstream   Normal Flow   Limited
  ----------------------------------------------------------------------------
  C23                         0.65      0.65      0.66      0.10         0.01
  C24                         0.58      0.66      0.58      0.66         0.01
  C25                         0.58      0.66      0.58      0.67         0.01
  C26                         0.56      0.58      0.64      0.67         0.01
  C27                         0.65      0.65      0.66      0.10         0.09
  C28                         0.66      0.66      0.66      0.67         0.08
  C29                         0.66      0.66      0.66      0.02         0.01
  C30                         0.58      0.58      0.66      0.67         0.02
  C31                         0.64      0.64      0.66      0.67         0.01
  C32                         0.57      0.66      0.57      0.03         0.01
  C33                         0.57      0.57      0.66      0.58         0.02
  C34                         0.66      0.66      0.66      0.66         0.01
  C35                         0.65      0.66      0.66      0.67         0.15
  C36                         0.64      0.64      0.66      0.58         0.13
  C37                         0.66      0.66      0.66      0.57         0.08
  C38                         0.57      0.66      0.57      0.58         0.01
  C39                         0.57      0.57      0.57      0.58         0.01
  C40                         0.57      0.66      0.58      0.58         0.01
  C41                         0.56      0.58      0.56      0.66         0.01
  C43                         0.56      0.65      0.56      0.66         0.01
  C44                         0.64      0.66      0.65      0.67         0.01
  C45                         0.64      0.66      0.64      0.33         0.31
  C46                         0.64      0.64      0.64      0.57         0.08
  C48                         0.58      0.66      0.58      0.67         0.01
  C42                         0.64      0.65      0.64      0.58         0.31
  C50                         0.56      0.56      0.65      0.58         0.01
  C49                         0.56      0.57      0.65      0.58         0.01
  C01                         0.67      0.67      0.67      0.57         0.02
  C02                         0.67      0.67      0.67      0.67         0.11
  C03                         0.67      0.67      0.67      0.67         0.11
  C04                         0.66      0.67      0.66      0.67         0.09
  C05                         0.66      0.66      0.67      0.65         0.01
  C06                         0.66      0.67      0.66      0.67         0.08
  C07                         0.65      0.67      0.65      0.67         0.08
  C08                         0.65      0.66      0.65      0.67         0.08
  C09                         0.66      0.67      0.66      0.58         0.10
  C10                         0.65      0.65      0.66      0.58         0.02
  C11                         0.65      0.66      0.65      0.67         0.01
  C12                         0.65      0.67      0.65      0.67         0.09
  C13                         0.66      0.66      0.67      0.58         0.18
  C14                         0.65      0.66      0.65      0.66         0.01
  C15                         0.65      0.65      0.67      0.57         0.16
  C16                         0.65      0.67      0.65      0.66         0.01
  C17                         0.64      0.65      0.64      0.58         0.08
  C18                         0.65      0.65      0.66      0.58         0.01
  C19                         0.56      0.65      0.57      0.30         0.01
  C20                         0.64      0.67      0.64      0.66         0.09
  C21                         0.57      0.57      0.66      0.67         0.06
  C22                         0.64      0.64      0.64      0.58         0.01
  C47                         0.64      0.66      0.64      0.66         0.08
  Cout                        0.01      0.58      0.08      0.67         0.01
  
  
  ***************
  Pumping Summary
  ***************
  
  ---------------------------------------------------------------------------------------------------------
                                                  Min       Avg       Max     Total     Power    % Time Off
                        Percent   Number of      Flow      Flow      Flow    Volume     Usage    Pump Curve
  Pump                 Utilized   Start-Ups       CMS       CMS       CMS  10^6 ltr     Kw-hr    Low   High
  ---------------------------------------------------------------------------------------------------------
  P1                       0.00           0      0.00      0.00      0.00     0.000      0.00    0.0    0.0
  

  Analysis begun on:  Mon Dec  2 16:55:38 2024
  Analysis ended on:  Mon Dec  2 16:55:38 2024
  Total elapsed time: < 1 sec