
  EPA STORM WATER MANAGEMENT MODEL - VERSION 5.2 (Build 5.2.4)
  PYSWMM TOOLKIT API - VERSION v1.0 (2023-11-27)
  ------------------------------------------------------------

  WARNING 04: minimum elevation drop used for Conduit C23
  WARNING 04: minimum elevation drop used for Conduit C24
  WARNING 04: minimum elevation drop used for Conduit C25
  WARNING 04: minimum elevation drop used for Conduit C26
  WARNING 04: minimum elevation drop used for Conduit C27
  WARNING 04: minimum elevation drop used for Conduit C28
  WARNING 04: minimum elevation drop used for Conduit C29
  WARNING 04: minimum elevation drop used for Conduit C30
  WARNING 04: minimum elevation drop used for Conduit C31
  WARNING 04: minimum elevation drop used for Conduit C32
  WARNING 04: minimum elevation drop used for Conduit C33
  WARNING 04: minimum elevation drop used for Conduit C34
  WARNING 04: minimum elevation drop used for Conduit C35
  WARNING 04: minimum elevation drop used for Conduit C36
  WARNING 04: minimum elevation drop used for Conduit C37
  WARNING 04: minimum elevation drop used for Conduit C38
  WARNING 04: minimum elevation drop used for Conduit C39
  WARNING 04: minimum elevation drop used for Conduit C40
  WARNING 04: minimum elevation drop used for Conduit C41
  WARNING 04: minimum elevation drop used for Conduit C43
  WARNING 04: minimum elevation drop used for Conduit C44
  WARNING 04: minimum elevation drop used for Conduit C45
  WARNING 04: minimum elevation drop used for Conduit C46
  WARNING 04: minimum elevation drop used for Conduit C48
  WARNING 04: minimum elevation drop used for Conduit C42
  WARNING 04: minimum elevation drop used for Conduit C50
  WARNING 04: minimum elevation drop used for Conduit C49
  WARNING 04: minimum elevation drop used for Conduit C01
  WARNING 04: minimum elevation drop used for Conduit C02
  WARNING 04: minimum elevation drop used for Conduit C03
  WARNING 04: minimum elevation drop used for Conduit C04
  WARNING 04: minimum elevation drop used for Conduit C05
  WARNING 04: minimum elevation drop used for Conduit C06
  WARNING 04: minimum elevation drop used for Conduit C07
  WARNING 04: minimum elevation drop used for Conduit C08
  WARNING 04: minimum elevation drop used for Conduit C09
  WARNING 04: minimum elevation drop used for Conduit C10
  WARNING 04: minimum elevation drop used for Conduit C11
  WARNING 04: minimum elevation drop used for Conduit C12
  WARNING 04: minimum elevation drop used for Conduit C13
  WARNING 04: minimum elevation drop used for Conduit C14
  WARNING 04: minimum elevation drop used for Conduit C15
  WARNING 04: minimum elevation drop used for Conduit C16
  WARNING 04: minimum elevation drop used for Conduit C17
  WARNING 04: minimum elevation drop used for Conduit C18
  WARNING 04: minimum elevation drop used for Conduit C19
  WARNING 04: minimum elevation drop used for Conduit C20
  WARNING 04: minimum elevation drop used for Conduit C21
  WARNING 04: minimum elevation drop used for Conduit C22
  WARNING 04: minimum elevation drop used for Conduit C47
  WARNING 04: minimum elevation drop used for Conduit Cout
  
  ****************
  Analysis Options
  ****************
  Flow Units ............... CMS
  Process Models:
    Rainfall/Runoff ........ YES
    RDII ................... NO
    Snowmelt ............... NO
    Groundwater ............ NO
    Flow Routing ........... YES
    Ponding Allowed ........ NO
    Water Quality .......... NO
  Infiltration Method ...... HORTON
  Flow Routing Method ...... DYNWAVE
  Surcharge Method ......... EXTRAN
  Starting Date ............ 11/09/2022 12:00:00
  Ending Date .............. 11/09/2022 12:40:00
  Antecedent Dry Days ...... 0.0
  Report Time Step ......... 00:10:00
  Wet Time Step ............ 00:05:00
  Dry Time Step ............ 01:00:00
  Routing Time Step ........ 300.00 sec
  Variable Time Step ....... YES
  Maximum Trials ........... 8
  Number of Threads ........ 1
  Head Tolerance ........... 0.001524 m
  
  
  *********************
  Rainfall File Summary
  *********************
  Station    First        Last         Recording   Periods    Periods    Periods
  ID         Date         Date         Frequency  w/Precip    Missing    Malfunc.
  -------------------------------------------------------------------------------
  193        11/09/2022   11/09/2022      10 min         5          0          0

  
  
  **************************        Volume         Depth
  Runoff Quantity Continuity     hectare-m            mm
  **************************     ---------       -------
  Total Precipitation ......       166.363      1663.700
  Evaporation Loss .........         0.000         0.000
  Infiltration Loss ........         0.000         0.000
  Surface Runoff ...........       156.949      1569.549
  Final Storage ............        12.012       120.120
  Continuity Error (%) .....        -1.561
  
  
  **************************        Volume        Volume
  Flow Routing Continuity        hectare-m      10^6 ltr
  **************************     ---------     ---------
  Dry Weather Inflow .......         0.000         0.000
  Wet Weather Inflow .......       146.000      1460.020
  Groundwater Inflow .......         0.000         0.000
  RDII Inflow ..............         0.000         0.000
  External Inflow ..........         0.000         0.000
  External Outflow .........         1.664        16.641
  Flooding Loss ............       141.490      1414.918
  Evaporation Loss .........         0.000         0.000
  Exfiltration Loss ........         0.000         0.000
  Initial Stored Volume ....         0.046         0.463
  Final Stored Volume ......         1.883        18.831
  Continuity Error (%) .....         0.691
  
  
  *************************
  Highest Continuity Errors
  *************************
  Node J3 (12.05%)
  Node J30 (11.69%)
  Node J17 (8.89%)
  Node J18 (6.32%)
  Node J13 (2.68%)
  
  
  ***************************
  Time-Step Critical Elements
  ***************************
  Link Cout (98.69%)
  
  
  ********************************
  Highest Flow Instability Indexes
  ********************************
  Link C24 (2)
  Link C25 (2)
  Link C31 (2)
  Link C33 (2)
  Link C34 (2)
  
  
  *********************************
  Most Frequent Nonconverging Nodes
  *********************************
  Node J18 (0.65%)
  Node OF (0.65%)
  
  
  *************************
  Routing Time Step Summary
  *************************
  Minimum Time Step           :     4.92 sec
  Average Time Step           :    15.69 sec
  Maximum Time Step           :   300.00 sec
  % of Time in Steady State   :     0.00
  Average Iterations per Step :     2.04
  % of Steps Not Converging   :     0.65
  Time Step Frequencies       :
     300.000 - 83.462 sec      :     0.66 %
     83.462 - 23.220 sec      :     0.00 %
     23.220 -  6.460 sec      :    98.68 %
      6.460 -  1.797 sec      :     0.66 %
      1.797 -  0.500 sec      :     0.00 %
  
  
  ***************************
  Subcatchment Runoff Summary
  ***************************
  
  ------------------------------------------------------------------------------------------------------------------------------
                            Total      Total      Total      Total     Imperv       Perv      Total       Total     Peak  Runoff
                           Precip      Runon       Evap      Infil     Runoff     Runoff     Runoff      Runoff   Runoff   Coeff
  Subcatchment                 mm         mm         mm         mm         mm         mm         mm    10^6 ltr      CMS
  ------------------------------------------------------------------------------------------------------------------------------
  S1                      1663.70       0.00       0.00       0.00      16.47    1647.23    1663.70      419.69   240.30   1.000
  S2                      1663.70       0.00       0.00       0.00      15.14    1647.07    1662.21       12.92     7.40   0.999
  S3                      1663.70       0.00       0.00       0.00      15.14    1648.56    1663.70        3.44     1.97   1.000
  S4                      1663.70       0.00       0.00       0.00      15.14    1648.56    1663.70        3.41     1.95   1.000
  S5                      1663.70       0.00       0.00       0.00      15.14    1648.56    1663.70        4.97     2.85   1.000
  S6                      1663.70       0.00       0.00       0.00      15.14    1648.56    1663.70       13.71     7.85   1.000
  S7                      1663.70       0.00       0.00       0.00      15.14    1648.56    1663.70        2.58     1.48   1.000
  S8                      1663.70       0.00       0.00       0.00      15.14    1648.56    1663.70        8.10     4.64   1.000
  S9                      1663.70       0.00       0.00       0.00      15.14    1648.56    1663.70       10.02     5.73   1.000
  S10                     1663.70       0.00       0.00       0.00       0.00    1648.56    1648.56        2.32     1.33   0.991
  S11                     1663.70       0.00       0.00       0.00      15.14    1590.83    1605.97       23.50    13.92   0.965
  S12                     1663.70       0.00       0.00       0.00      15.14    1648.56    1663.70       14.44     8.27   1.000
  S13                     1663.70       0.00       0.00       0.00       0.00    1648.56    1648.56       13.91     7.97   0.991
  S14                     1663.70       0.00       0.00       0.00      13.98    1649.72    1663.70       13.36     7.65   1.000
  S15                     1663.70       0.00       0.00       0.00      13.97    1649.72    1663.70       12.48     7.14   1.000
  S16                     1663.70       0.00       0.00       0.00      12.81    1639.22    1652.03       29.18    16.82   0.993
  S17                     1663.70       0.00       0.00       0.00      12.81    1503.38    1516.19       51.63    32.02   0.911
  S18                     1663.70       0.00       0.00       0.00      12.81    1650.77    1663.58        2.15     1.23   1.000
  S19                     1663.70       0.00       0.00       0.00      12.81       0.00      12.81        0.03     0.02   0.008
  S20                     1663.70       0.00       0.00       0.00      12.81    1650.88    1663.69        1.70     0.97   1.000
  S21                     1663.70       0.00       0.00       0.00      12.81    1619.36    1632.17       27.06    15.79   0.981
  S22                     1663.70       0.00       0.00       0.00      12.81    1650.82    1663.63        0.55     0.31   1.000
  S23                     1663.70       0.00       0.00       0.00      12.81    1650.89    1663.70        0.65     0.37   1.000
  S24                     1663.70       0.00       0.00       0.00      12.81    1650.89    1663.70        0.82     0.47   1.000
  S25                     1663.70       0.00       0.00       0.00      12.81    1650.89    1663.70        0.98     0.56   1.000
  S26                     1663.70       0.00       0.00       0.00      12.81    1650.89    1663.70        1.15     0.66   1.000
  S27                     1663.70       0.00       0.00       0.00      12.81    1650.73    1663.54       13.82     7.92   1.000
  S28                     1663.70       0.00       0.00       0.00      12.81    1622.97    1635.78       14.53     8.46   0.983
  S29                     1663.70       0.00       0.00       0.00      12.81    1650.85    1663.66        1.53     0.88   1.000
  S30                     1663.70       0.00       0.00       0.00      12.81    1459.57    1472.38       93.79    59.29   0.885
  S31                     1663.70       0.00       0.00       0.00      13.31    1650.39    1663.70       22.54    12.91   1.000
  S32                     1663.70       0.00       0.00       0.00      13.31    1650.39    1663.70        6.94     3.97   1.000
  S33                     1663.70       0.00       0.00       0.00      15.64    1648.06    1663.70        5.17     2.96   1.000
  S34                     1663.70       0.00       0.00       0.00      15.64    1648.06    1663.70        5.47     3.13   1.000
  S35                     1663.70       0.00       0.00       0.00      15.14    1648.56    1663.70        6.69     3.83   1.000
  S36                     1663.70       0.00       0.00       0.00      15.14    1648.56    1663.70        2.75     1.57   1.000
  S37                     1663.70       0.00       0.00       0.00      15.14    1648.56    1663.70        5.99     3.43   1.000
  S38                     1663.70       0.00       0.00       0.00      15.14    1648.56    1663.70        0.27     0.15   1.000
  S39                     1663.70       0.00       0.00       0.00      15.14    1648.56    1663.70        6.82     3.91   1.000
  S40                     1663.70       0.00       0.00       0.00      15.14    1648.56    1663.70        2.35     1.34   1.000
  S41                     1663.70       0.00       0.00       0.00      15.14    1648.56    1663.70        3.78     2.16   1.000
  S42                     1663.70       0.00       0.00       0.00      15.14    1648.56    1663.70        5.26     3.01   1.000
  S43                     1663.70       0.00       0.00       0.00      15.14    1648.56    1663.70       11.98     6.86   1.000
  S44                     1663.70       0.00       0.00       0.00      15.14    1648.56    1663.70        8.68     4.97   1.000
  S45                     1663.70       0.00       0.00       0.00      15.14    1648.56    1663.70        0.88     0.50   1.000
  S46                     1663.70       0.00       0.00       0.00      15.14    1648.56    1663.70        8.05     4.61   1.000
  S47                     1663.70       0.00       0.00       0.00      15.14    1648.56    1663.70       16.27     9.32   1.000
  S48                     1663.70       0.00       0.00       0.00      15.14    1648.56    1663.70       18.80    10.76   1.000
  S49                     1663.70       0.00       0.00       0.00      15.14    1648.56    1663.70       11.43     6.54   1.000
  S50                     1663.70       0.00       0.00       0.00      15.14    1648.56    1663.70        9.42     5.39   1.000
  S51                     1663.70       0.00       0.00       0.00      15.14    1648.56    1663.70        5.56     3.18   1.000
  S52                     1663.70       0.00       0.00       0.00      15.14    1648.56    1663.70       14.72     8.43   1.000
  S53                     1663.70       0.00       0.00       0.00      15.14    1622.13    1637.27       19.94    11.60   0.984
  S54                     1663.70       0.00       0.00       0.00      15.14    1645.61    1660.75        7.59     4.35   0.998
  S55                     1663.70       0.00       0.00       0.00      15.14    1648.56    1663.70        0.63     0.36   1.000
  S56                     1663.70       0.00       0.00       0.00      15.14    1648.49    1663.63        0.63     0.36   1.000
  S57                     1663.70       0.00       0.00       0.00      15.14    1648.56    1663.70        8.60     4.92   1.000
  S58                     1663.70       0.00       0.00       0.00      15.14    1648.56    1663.70       11.05     6.33   1.000
  S59                     1663.70       0.00       0.00       0.00      15.14    1648.56    1663.70       10.73     6.14   1.000
  S60                     1663.70       0.00       0.00       0.00      12.81    1649.93    1662.74        6.53     3.74   0.999
  S61                     1663.70       0.00       0.00       0.00      12.81       0.00      12.81        0.04     0.02   0.008
  S62                     1663.70       0.00       0.00       0.00      12.81    1427.86    1440.67       77.21    49.41   0.866
  S63                     1663.70       0.00       0.00       0.00      12.81    1650.89    1663.70       15.64     8.95   1.000
  S64                     1663.70       0.00       0.00       0.00      12.81    1650.89    1663.70       42.34    24.24   1.000
  S65                     1663.70       0.00       0.00       0.00      12.81    1650.89    1663.70        6.75     3.87   1.000
  S66                     1663.70       0.00       0.00       0.00      12.81    1650.89    1663.70       10.90     6.24   1.000
  S67                     1663.70       0.00       0.00       0.00      12.81    1650.89    1663.70       20.36    11.66   1.000
  S68                     1663.70       0.00       0.00       0.00      12.81    1650.89    1663.70       23.87    13.67   1.000
  S69                     1663.70       0.00       0.00       0.00      12.81       0.00      12.81        0.32     0.18   0.008
  S70                     1663.70       0.00       0.00       0.00      12.81    1617.69    1630.50       42.67    24.92   0.980
  S71                     1663.70       0.00       0.00       0.00      15.14    1648.56    1663.70       24.47    14.01   1.000
  S72                     1663.70       0.00       0.00       0.00      12.81    1641.91    1654.72        8.21     4.72   0.995
  S73                     1663.70       0.00       0.00       0.00      12.81    1650.89    1663.70       34.87    19.97   1.000
  S74                     1663.70       0.00       0.00       0.00      12.81       0.00      12.81        0.08     0.05   0.008
  S75                     1663.70       0.00       0.00       0.00      12.81    1650.89    1663.70        1.11     0.64   1.000
  S76                     1663.70       0.00       0.00       0.00      12.81    1650.89    1663.70       21.98    12.58   1.000
  S77                     1663.70       0.00       0.00       0.00      12.81    1650.89    1663.70       17.79    10.18   1.000
  S78                     1663.70       0.00       0.00       0.00      12.81    1650.89    1663.70       12.89     7.38   1.000
  S79                     1663.70       0.00       0.00       0.00      15.14    1648.56    1663.70       11.30     6.47   1.000
  S80                     1663.70       0.00       0.00       0.00      12.81    1650.75    1663.56        4.59     2.63   1.000
  S81                     1663.70       0.00       0.00       0.00      12.81    1650.89    1663.70       18.82    10.77   1.000
  S82                     1663.70       0.00       0.00       0.00      12.81    1650.89    1663.70       18.37    10.52   1.000
  S83                     1663.70       0.00       0.00       0.00      12.81    1650.89    1663.70       11.81     6.76   1.000
  S84                     1663.70       0.00       0.00       0.00      15.14    1648.56    1663.70        7.72     4.42   1.000
  S85                     1663.70       0.00       0.00       0.00      15.14    1629.62    1644.76       20.33    11.77   0.989
  S86                     1663.70       0.00       0.00       0.00       0.00    1648.56    1648.56       19.07    10.92   0.991
  S87                     1663.70       0.00       0.00       0.00      15.14    1648.56    1663.70       20.66    11.83   1.000
  S88                     1663.70       0.00       0.00       0.00      15.14    1648.56    1663.70        3.73     2.13   1.000
  S89                     1663.70       0.00       0.00       0.00      15.14    1648.56    1663.70       16.82     9.63   1.000
  S90                     1663.70       0.00       0.00       0.00       0.00    1648.56    1648.56        8.09     4.63   0.991
  S91                     1663.70       0.00       0.00       0.00      15.14    1648.56    1663.70        2.75     1.57   1.000
  
  
  ******************
  Node Depth Summary
  ******************
  
  ---------------------------------------------------------------------------------
                                 Average  Maximum  Maximum  Time of Max    Reported
                                   Depth    Depth      HGL   Occurrence   Max Depth
  Node                 Type       Meters   Meters   Meters  days hr:min      Meters
  ---------------------------------------------------------------------------------
  J7                   JUNCTION     2.48     2.50     2.50     0  00:05        2.50
  J13                  JUNCTION     2.48     2.50     2.50     0  00:05        2.50
  J19                  JUNCTION     2.48     2.50     2.50     0  00:05        2.50
  J25                  JUNCTION     2.48     2.50     2.50     0  00:05        2.50
  J1                   JUNCTION     2.48     2.50     2.50     0  00:05        2.50
  J2                   JUNCTION     2.48     2.50     2.50     0  00:05        2.50
  J3                   JUNCTION     2.48     2.50     2.50     0  00:05        2.50
  J4                   JUNCTION     2.48     2.50     2.50     0  00:05        2.50
  J5                   JUNCTION     2.48     2.50     2.50     0  00:05        2.50
  J6                   JUNCTION     2.48     2.50     2.50     0  00:05        2.50
  J8                   JUNCTION     2.48     2.50     2.50     0  00:05        2.50
  J9                   JUNCTION     2.48     2.50     2.50     0  00:05        2.50
  J10                  JUNCTION     2.48     2.50     2.50     0  00:05        2.50
  J11                  JUNCTION     2.48     2.50     2.50     0  00:05        2.50
  J12                  JUNCTION     2.48     2.50     2.50     0  00:05        2.50
  J14                  JUNCTION     2.48     2.50     2.50     0  00:05        2.50
  J15                  JUNCTION     2.48     2.50     2.50     0  00:05        2.50
  J16                  JUNCTION     2.48     2.50     2.50     0  00:05        2.50
  J17                  JUNCTION     2.48     2.50     2.50     0  00:05        2.50
  J18                  JUNCTION     2.48     2.50     2.50     0  00:05        2.50
  J20                  JUNCTION     2.48     2.50     2.50     0  00:05        2.50
  J21                  JUNCTION     2.48     2.50     2.50     0  00:05        2.50
  J22                  JUNCTION     2.48     2.50     2.50     0  00:05        2.50
  J23                  JUNCTION     2.48     2.50     2.50     0  00:05        2.50
  J24                  JUNCTION     2.48     2.50     2.50     0  00:05        2.50
  J26                  JUNCTION     2.48     2.50     2.50     0  00:05        2.50
  J27                  JUNCTION     2.48     2.50     2.50     0  00:05        2.50
  J29                  JUNCTION     2.48     2.50     2.50     0  00:05        2.50
  J30                  JUNCTION     2.48     2.50     2.50     0  00:05        2.50
  J31                  JUNCTION     2.48     2.50     2.50     0  00:05        2.50
  J33                  JUNCTION     2.48     2.50     2.50     0  00:05        2.50
  J32                  JUNCTION     2.48     2.50     2.50     0  00:05        2.50
  J28                  JUNCTION     2.48     2.50     2.50     0  00:05        2.50
  OF                   OUTFALL      1.36     1.41     1.41     0  00:05        1.37
  
  
  *******************
  Node Inflow Summary
  *******************
  
  -------------------------------------------------------------------------------------------------
                                  Maximum  Maximum                  Lateral       Total        Flow
                                  Lateral    Total  Time of Max      Inflow      Inflow     Balance
                                   Inflow   Inflow   Occurrence      Volume      Volume       Error
  Node                 Type           CMS      CMS  days hr:min    10^6 ltr    10^6 ltr     Percent
  -------------------------------------------------------------------------------------------------
  J7                   JUNCTION    65.197   65.197     0  00:30          96          96       1.203
  J13                  JUNCTION     5.435    5.679     0  00:25         8.8        9.72       2.752
  J19                  JUNCTION   257.554  257.554     0  00:30         419         419       2.060
  J25                  JUNCTION    32.021   32.562     0  00:30        47.6        49.6       1.440
  J1                   JUNCTION    21.619   21.619     0  00:25        35.2        35.2       2.138
  J2                   JUNCTION    16.242   16.422     0  00:25        26.4          27       1.877
  J3                   JUNCTION     0.724    9.469     0  00:05        1.18        5.67      13.706
  J4                   JUNCTION    47.030   47.543     0  00:25        76.6        78.5       1.769
  J5                   JUNCTION    38.885   39.046     0  00:25        63.3        63.8       1.604
  J6                   JUNCTION    17.013   17.013     0  00:30        27.7        27.7       1.666
  J8                   JUNCTION    26.178   26.178     0  00:25        42.6        42.6       2.205
  J9                   JUNCTION    11.773   11.988     0  00:30        18.9        19.5       1.617
  J10                  JUNCTION    17.566   17.566     0  00:25        28.6        28.6       1.456
  J11                  JUNCTION    18.872   19.254     0  00:25        30.7        31.9       2.007
  J12                  JUNCTION    19.967   20.349     0  00:25        32.5        33.7       2.220
  J14                  JUNCTION    16.918   16.918     0  00:25        27.5        27.5       2.224
  J15                  JUNCTION    24.213   24.213     0  00:30        39.1        39.1       1.835
  J16                  JUNCTION    14.013   14.772     0  00:25        22.8        25.6       2.050
  J17                  JUNCTION     0.182    4.708     0  00:05       0.297        3.37       9.761
  J18                  JUNCTION     0.638    1.489     0  00:05        1.04        2.38       6.742
  J20                  JUNCTION    47.314   47.314     0  00:30        76.2        76.2       2.062
  J21                  JUNCTION    15.616   15.616     0  00:25        25.4        25.4       2.224
  J22                  JUNCTION    32.066   32.066     0  00:30        51.3        51.3       1.685
  J23                  JUNCTION    16.823   17.016     0  00:30        27.2        27.9       1.999
  J24                  JUNCTION     2.218    2.428     0  00:25        3.61        4.26       1.309
  J26                  JUNCTION    13.794   13.794     0  00:25        22.5        22.5       2.224
  J27                  JUNCTION    12.098   12.528     0  00:25        19.7        21.1       2.295
  J29                  JUNCTION    19.843   20.259     0  00:25        32.3        33.6       2.216
  J30                  JUNCTION     0.000    5.595     0  00:05           0        3.45      13.236
  J31                  JUNCTION    59.287   59.507     0  00:30        86.2        87.2       0.974
  J33                  JUNCTION    19.524   19.524     0  00:30        31.8        31.8       2.217
  J32                  JUNCTION     8.907    8.907     0  00:30        14.5        14.5       1.894
  J28                  JUNCTION    14.241   14.687     0  00:25        23.2        24.7       1.866
  OF                   OUTFALL      0.000    7.967     0  00:05           0        16.6       0.000
  
  
  **********************
  Node Surcharge Summary
  **********************
  
  Surcharging occurs when water rises above the top of the highest conduit.
  ---------------------------------------------------------------------
                                               Max. Height   Min. Depth
                                   Hours       Above Crown    Below Rim
  Node                 Type      Surcharged         Meters       Meters
  ---------------------------------------------------------------------
  J7                   JUNCTION        0.67          0.850        0.000
  J13                  JUNCTION        0.67          0.850        0.000
  J19                  JUNCTION        0.67          0.850        0.000
  J25                  JUNCTION        0.67          0.850        0.000
  J1                   JUNCTION        0.67          0.850        0.000
  J2                   JUNCTION        0.67          0.850        0.000
  J3                   JUNCTION        0.67          0.850        0.000
  J4                   JUNCTION        0.67          0.850        0.000
  J5                   JUNCTION        0.67          0.850        0.000
  J6                   JUNCTION        0.67          0.850        0.000
  J8                   JUNCTION        0.67          0.850        0.000
  J9                   JUNCTION        0.67          0.850        0.000
  J10                  JUNCTION        0.67          0.850        0.000
  J11                  JUNCTION        0.67          0.850        0.000
  J12                  JUNCTION        0.67          0.850        0.000
  J14                  JUNCTION        0.67          0.850        0.000
  J15                  JUNCTION        0.67          0.850        0.000
  J16                  JUNCTION        0.67          0.850        0.000
  J17                  JUNCTION        0.67          0.850        0.000
  J18                  JUNCTION        0.67          0.850        0.000
  J20                  JUNCTION        0.67          0.850        0.000
  J21                  JUNCTION        0.67          0.850        0.000
  J22                  JUNCTION        0.67          0.850        0.000
  J23                  JUNCTION        0.67          0.850        0.000
  J24                  JUNCTION        0.67          0.850        0.000
  J26                  JUNCTION        0.67          0.850        0.000
  J27                  JUNCTION        0.67          0.850        0.000
  J29                  JUNCTION        0.67          0.850        0.000
  J30                  JUNCTION        0.67          0.850        0.000
  J31                  JUNCTION        0.67          0.850        0.000
  J33                  JUNCTION        0.67          0.850        0.000
  J32                  JUNCTION        0.67          0.850        0.000
  J28                  JUNCTION        0.67          0.850        0.000
  
  
  *********************
  Node Flooding Summary
  *********************
  
  Flooding refers to all water that overflows a node, whether it ponds or not.
  --------------------------------------------------------------------------
                                                             Total   Maximum
                                 Maximum   Time of Max       Flood    Ponded
                        Hours       Rate    Occurrence      Volume     Depth
  Node                 Flooded       CMS   days hr:min    10^6 ltr    Meters
  --------------------------------------------------------------------------
  J7                      0.67    64.966      0  00:30      95.325     0.000
  J13                     0.67     5.678      0  00:25       9.715     0.000
  J19                     0.67   250.202      0  00:30     402.475     0.000
  J25                     0.67    32.543      0  00:30      49.595     0.000
  J1                      0.67    21.461      0  00:30      34.694     0.000
  J2                      0.67    16.024      0  00:30      25.507     0.000
  J3                      0.67     8.903      0  00:05       5.669     0.000
  J4                      0.67    47.032      0  00:30      75.566     0.000
  J5                      0.67    38.200      0  00:30      59.820     0.000
  J6                      0.67    16.470      0  00:30      25.657     0.000
  J8                      0.67    26.103      0  00:30      42.436     0.000
  J9                      0.67    11.772      0  00:30      18.515     0.000
  J10                     0.67    16.884      0  00:30      25.899     0.000
  J11                     0.67    18.843      0  00:30      30.429     0.000
  J12                     0.67    20.128      0  00:25      32.948     0.000
  J14                     0.67    16.918      0  00:25      27.548     0.000
  J15                     0.67    23.927      0  00:30      37.952     0.000
  J16                     0.67    14.471      0  00:25      23.991     0.000
  J17                     0.67     3.989      0  00:05       2.733     0.000
  J18                     0.58     0.983      0  00:05       1.639     0.000
  J20                     0.67    47.310      0  00:30      76.196     0.000
  J21                     0.67    15.616      0  00:25      25.428     0.000
  J22                     0.67    31.658      0  00:30      49.688     0.000
  J23                     0.67    16.695      0  00:30      26.880     0.000
  J24                     0.67     2.195      0  00:30       3.419     0.000
  J26                     0.67    13.794      0  00:25      22.460     0.000
  J27                     0.67    12.294      0  00:25      20.328     0.000
  J29                     0.67    19.900      0  00:25      32.568     0.000
  J30                     0.67     5.390      0  00:05       3.445     0.000
  J31                     0.67    59.218      0  00:30      85.797     0.000
  J33                     0.67    19.524      0  00:30      31.779     0.000
  J32                     0.67     8.721      0  00:30      13.826     0.000
  J28                     0.67    14.396      0  00:25      23.299     0.000
  
  
  ***********************
  Outfall Loading Summary
  ***********************
  
  -----------------------------------------------------------
                         Flow       Avg       Max       Total
                         Freq      Flow      Flow      Volume
  Outfall Node           Pcnt       CMS       CMS    10^6 ltr
  -----------------------------------------------------------
  OF                   100.00     7.312     7.967      16.641
  -----------------------------------------------------------
  System               100.00     7.312     7.967      16.641
  
  
  ********************
  Link Flow Summary
  ********************
  
  -----------------------------------------------------------------------------
                                 Maximum  Time of Max   Maximum    Max/    Max/
                                  |Flow|   Occurrence   |Veloc|    Full    Full
  Link                 Type          CMS  days hr:min     m/sec    Flow   Depth
  -----------------------------------------------------------------------------
  P1                   PUMP        0.000     0  00:00                          
  C23                  CONDUIT     0.093     0  00:05      0.04    0.81    1.00
  C24                  CONDUIT     1.044     0  00:05      0.49    9.05    1.00
  C25                  CONDUIT     0.100     0  00:05      0.05    0.80    1.00
  C26                  CONDUIT     0.575     0  00:05      0.27    4.50    1.00
  C27                  CONDUIT     0.103     0  00:05      0.05    0.85    1.00
  C28                  CONDUIT     1.163     0  00:05      0.54    8.02    1.00
  C29                  CONDUIT     0.396     0  00:05      0.19    2.79    1.00
  C30                  CONDUIT     1.197     0  00:05      0.56   10.52    1.00
  C31                  CONDUIT     0.364     0  00:05      0.17    3.18    1.00
  C32                  CONDUIT     2.344     0  00:05      1.10   15.15    1.00
  C33                  CONDUIT     6.030     0  00:05      2.82   35.28    1.00
  C34                  CONDUIT     1.110     0  00:05      0.52    8.84    1.00
  C35                  CONDUIT     0.315     0  00:05      0.15    3.35    1.00
  C36                  CONDUIT     0.655     0  00:05      0.31    6.18    1.00
  C37                  CONDUIT     0.439     0  00:05      0.21    3.01    1.00
  C38                  CONDUIT     1.045     0  00:05      0.49    7.28    1.00
  C39                  CONDUIT     0.789     0  00:05      0.37    5.00    1.00
  C40                  CONDUIT     0.000     0  00:00      0.00    0.00    1.00
  C41                  CONDUIT     0.000     0  00:00      0.00    0.00    1.00
  C43                  CONDUIT     0.000     0  00:00      0.00    0.00    1.00
  C44                  CONDUIT     0.509     0  00:05      0.24    4.35    1.00
  C45                  CONDUIT     2.666     0  00:05      1.25   22.88    1.00
  C46                  CONDUIT     2.538     0  00:05      1.19   21.03    1.00
  C48                  CONDUIT     0.000     0  00:05      0.00    0.00    1.00
  C42                  CONDUIT     0.391     0  00:05      0.18    3.10    1.00
  C50                  CONDUIT     0.629     0  00:05      0.29    6.08    1.00
  C49                  CONDUIT     0.399     0  00:05      0.19    3.48    1.00
  C01                  CONDUIT     0.000     0  00:00      0.00    0.00    1.00
  C02                  CONDUIT     0.000     0  00:00      0.00    0.00    1.00
  C03                  CONDUIT     0.730     0  00:05      0.34    5.83    1.00
  C04                  CONDUIT     0.436     0  00:05      0.20    3.43    1.00
  C05                  CONDUIT     0.908     0  00:05      0.42    7.24    1.00
  C06                  CONDUIT     0.000     0  00:00      0.00    0.00    1.00
  C07                  CONDUIT     0.000     0  00:00      0.00    0.00    1.00
  C08                  CONDUIT     0.000     0  00:00      0.00    0.00    1.00
  C09                  CONDUIT     1.034     0  00:05      0.48    9.05    1.00
  C10                  CONDUIT     1.189     0  00:05      0.56    9.48    1.00
  C11                  CONDUIT     0.000     0  00:00      0.00    0.00    1.00
  C12                  CONDUIT     0.384     0  00:05      0.18    3.31    1.00
  C13                  CONDUIT     0.515     0  00:05      0.24    4.48    1.00
  C14                  CONDUIT     3.049     0  00:05      1.43   24.22    1.00
  C15                  CONDUIT     0.559     0  00:05      0.26    4.44    1.00
  C16                  CONDUIT     0.579     0  00:05      0.27    5.08    1.00
  C17                  CONDUIT     1.199     0  00:05      0.56   10.58    1.00
  C18                  CONDUIT     0.000     0  00:00      0.00    0.00    1.00
  C19                  CONDUIT     0.000     0  00:05      0.00    0.00    1.00
  C20                  CONDUIT     0.663     0  00:05      0.31    5.90    1.00
  C21                  CONDUIT     1.061     0  00:05      0.50   10.02    1.00
  C22                  CONDUIT     0.326     0  00:05      0.15    2.57    1.00
  C47                  CONDUIT     1.320     0  00:05      0.62   13.57    1.00
  Cout                 CONDUIT     7.967     0  00:05      3.85   62.91    0.93
  
  
  ***************************
  Flow Classification Summary
  ***************************
  
  -------------------------------------------------------------------------------------
                      Adjusted    ---------- Fraction of Time in Flow Class ---------- 
                       /Actual         Up    Down  Sub   Sup   Up    Down  Norm  Inlet 
  Conduit               Length    Dry  Dry   Dry   Crit  Crit  Crit  Crit  Ltd   Ctrl  
  -------------------------------------------------------------------------------------
  C23                     1.00   0.00  0.00  0.00  1.00  0.00  0.00  0.00  0.00  0.00
  C24                     1.00   0.00  0.00  0.00  1.00  0.00  0.00  0.00  0.00  0.00
  C25                     1.00   0.00  0.00  0.00  1.00  0.00  0.00  0.00  0.00  0.00
  C26                     1.00   0.00  0.00  0.00  1.00  0.00  0.00  0.00  0.00  0.00
  C27                     1.00   0.00  0.00  0.00  1.00  0.00  0.00  0.00  0.00  0.00
  C28                     1.00   0.00  0.00  0.00  1.00  0.00  0.00  0.00  0.00  0.00
  C29                     1.00   0.00  0.00  0.00  1.00  0.00  0.00  0.00  0.00  0.00
  C30                     1.00   0.00  0.00  0.00  1.00  0.00  0.00  0.00  0.00  0.00
  C31                     1.00   0.00  0.00  0.00  1.00  0.00  0.00  0.00  0.00  0.00
  C32                     1.00   0.00  0.00  0.00  1.00  0.00  0.00  0.00  0.00  0.00
  C33                     1.00   0.00  0.00  0.00  1.00  0.00  0.00  0.00  0.00  0.00
  C34                     1.00   0.00  0.00  0.00  1.00  0.00  0.00  0.00  0.00  0.00
  C35                     1.00   0.00  0.00  0.00  1.00  0.00  0.00  0.00  0.00  0.00
  C36                     1.00   0.00  0.00  0.00  1.00  0.00  0.00  0.00  0.00  0.00
  C37                     1.00   0.00  0.00  0.00  1.00  0.00  0.00  0.00  0.00  0.00
  C38                     1.00   0.00  0.00  0.00  1.00  0.00  0.00  0.00  0.00  0.00
  C39                     1.00   0.00  0.00  0.00  1.00  0.00  0.00  0.00  0.00  0.00
  C40                     1.00   0.00  0.00  0.00  1.00  0.00  0.00  0.00  0.00  0.00
  C41                     1.00   0.00  0.00  0.00  1.00  0.00  0.00  0.00  0.00  0.00
  C43                     1.00   0.00  0.00  0.00  1.00  0.00  0.00  0.00  0.00  0.00
  C44                     1.00   0.00  0.00  0.00  1.00  0.00  0.00  0.00  0.00  0.00
  C45                     1.00   0.00  0.00  0.00  1.00  0.00  0.00  0.00  0.00  0.00
  C46                     1.00   0.00  0.00  0.00  1.00  0.00  0.00  0.00  0.00  0.00
  C48                     1.00   0.00  0.00  0.00  1.00  0.00  0.00  0.00  0.00  0.00
  C42                     1.00   0.00  0.00  0.00  1.00  0.00  0.00  0.00  0.00  0.00
  C50                     1.00   0.00  0.00  0.00  1.00  0.00  0.00  0.00  0.00  0.00
  C49                     1.00   0.00  0.00  0.00  1.00  0.00  0.00  0.00  0.00  0.00
  C01                     1.00   0.00  0.00  0.00  1.00  0.00  0.00  0.00  0.00  0.00
  C02                     1.00   0.00  0.00  0.00  1.00  0.00  0.00  0.00  0.00  0.00
  C03                     1.00   0.00  0.00  0.00  1.00  0.00  0.00  0.00  0.00  0.00
  C04                     1.00   0.00  0.00  0.00  1.00  0.00  0.00  0.00  0.00  0.00
  C05                     1.00   0.00  0.00  0.00  1.00  0.00  0.00  0.00  0.00  0.00
  C06                     1.00   0.00  0.00  0.00  1.00  0.00  0.00  0.00  0.00  0.00
  C07                     1.00   0.00  0.00  0.00  1.00  0.00  0.00  0.00  0.00  0.00
  C08                     1.00   0.00  0.00  0.00  1.00  0.00  0.00  0.00  0.00  0.00
  C09                     1.00   0.00  0.00  0.00  1.00  0.00  0.00  0.00  0.00  0.00
  C10                     1.00   0.00  0.00  0.00  1.00  0.00  0.00  0.00  0.00  0.00
  C11                     1.00   0.00  0.00  0.00  1.00  0.00  0.00  0.00  0.00  0.00
  C12                     1.00   0.00  0.00  0.00  1.00  0.00  0.00  0.00  0.00  0.00
  C13                     1.00   0.00  0.00  0.00  1.00  0.00  0.00  0.00  0.00  0.00
  C14                     1.00   0.00  0.00  0.00  1.00  0.00  0.00  0.00  0.00  0.00
  C15                     1.00   0.00  0.00  0.00  1.00  0.00  0.00  0.00  0.00  0.00
  C16                     1.00   0.00  0.00  0.00  1.00  0.00  0.00  0.00  0.00  0.00
  C17                     1.00   0.00  0.00  0.00  1.00  0.00  0.00  0.00  0.00  0.00
  C18                     1.00   0.00  0.00  0.00  1.00  0.00  0.00  0.00  0.00  0.00
  C19                     1.00   0.00  0.00  0.00  1.00  0.00  0.00  0.00  0.00  0.00
  C20                     1.00   0.00  0.00  0.00  1.00  0.00  0.00  0.00  0.00  0.00
  C21                     1.00   0.00  0.00  0.00  1.00  0.00  0.00  0.00  0.00  0.00
  C22                     1.00   0.00  0.00  0.00  1.00  0.00  0.00  0.00  0.00  0.00
  C47                     1.00   0.00  0.00  0.00  1.00  0.00  0.00  0.00  0.00  0.00
  Cout                    1.00   0.00  0.00  0.00  1.00  0.00  0.00  0.00  0.00  0.00
  
  
  *************************
  Conduit Surcharge Summary
  *************************
  
  ----------------------------------------------------------------------------
                                                           Hours        Hours 
                         --------- Hours Full --------   Above Full   Capacity
  Conduit                Both Ends  Upstream  Dnstream   Normal Flow   Limited
  ----------------------------------------------------------------------------
  C23                         0.67      0.67      0.67      0.01         0.01
  C24                         0.67      0.67      0.67      0.67         0.01
  C25                         0.67      0.67      0.67      0.01         0.01
  C26                         0.67      0.67      0.67      0.67         0.01
  C27                         0.67      0.67      0.67      0.01         0.01
  C28                         0.67      0.67      0.67      0.67         0.01
  C29                         0.67      0.67      0.67      0.58         0.01
  C30                         0.67      0.67      0.67      0.67         0.01
  C31                         0.67      0.67      0.67      0.67         0.01
  C32                         0.67      0.67      0.67      0.67         0.01
  C33                         0.67      0.67      0.67      0.67         0.01
  C34                         0.67      0.67      0.67      0.67         0.01
  C35                         0.67      0.67      0.67      0.67         0.01
  C36                         0.67      0.67      0.67      0.67         0.01
  C37                         0.67      0.67      0.67      0.59         0.01
  C38                         0.67      0.67      0.67      0.67         0.01
  C39                         0.67      0.67      0.67      0.64         0.01
  C40                         0.67      0.67      0.67      0.01         0.01
  C41                         0.67      0.67      0.67      0.01         0.01
  C43                         0.67      0.67      0.67      0.01         0.01
  C44                         0.67      0.67      0.67      0.67         0.01
  C45                         0.67      0.67      0.67      0.67         0.01
  C46                         0.67      0.67      0.67      0.67         0.01
  C48                         0.67      0.67      0.67      0.01         0.01
  C42                         0.67      0.67      0.67      0.67         0.01
  C50                         0.67      0.67      0.67      0.67         0.01
  C49                         0.67      0.67      0.67      0.67         0.01
  C01                         0.67      0.67      0.67      0.01         0.01
  C02                         0.67      0.67      0.67      0.01         0.01
  C03                         0.67      0.67      0.67      0.67         0.01
  C04                         0.67      0.67      0.67      0.67         0.01
  C05                         0.67      0.67      0.67      0.67         0.01
  C06                         0.67      0.67      0.67      0.01         0.01
  C07                         0.67      0.67      0.67      0.01         0.01
  C08                         0.67      0.67      0.67      0.01         0.01
  C09                         0.67      0.67      0.67      0.67         0.01
  C10                         0.67      0.67      0.67      0.67         0.01
  C11                         0.67      0.67      0.67      0.01         0.01
  C12                         0.67      0.67      0.67      0.67         0.01
  C13                         0.67      0.67      0.67      0.67         0.08
  C14                         0.67      0.67      0.67      0.67         0.01
  C15                         0.67      0.67      0.67      0.67         0.08
  C16                         0.67      0.67      0.67      0.67         0.01
  C17                         0.67      0.67      0.67      0.67         0.01
  C18                         0.67      0.67      0.67      0.01         0.01
  C19                         0.67      0.67      0.67      0.01         0.01
  C20                         0.67      0.67      0.67      0.67         0.01
  C21                         0.67      0.67      0.67      0.67         0.01
  C22                         0.67      0.67      0.67      0.61         0.01
  C47                         0.67      0.67      0.67      0.67         0.01
  Cout                        0.01      0.67      0.01      0.67         0.01
  
  
  ***************
  Pumping Summary
  ***************
  
  ---------------------------------------------------------------------------------------------------------
                                                  Min       Avg       Max     Total     Power    % Time Off
                        Percent   Number of      Flow      Flow      Flow    Volume     Usage    Pump Curve
  Pump                 Utilized   Start-Ups       CMS       CMS       CMS  10^6 ltr     Kw-hr    Low   High
  ---------------------------------------------------------------------------------------------------------
  P1                       0.00           0      0.00      0.00      0.00     0.000      0.00    0.0    0.0
  

  Analysis begun on:  Mon Nov 25 18:31:12 2024
  Analysis ended on:  Mon Nov 25 18:31:12 2024
  Total elapsed time: < 1 sec