
  EPA STORM WATER MANAGEMENT MODEL - VERSION 5.2 (Build 5.2.4)
  PYSWMM TOOLKIT API - VERSION v1.0 (2023-11-27)
  ------------------------------------------------------------

  WARNING 04: minimum elevation drop used for Conduit C23
  WARNING 04: minimum elevation drop used for Conduit C24
  WARNING 04: minimum elevation drop used for Conduit C25
  WARNING 04: minimum elevation drop used for Conduit C26
  WARNING 04: minimum elevation drop used for Conduit C27
  WARNING 04: minimum elevation drop used for Conduit C28
  WARNING 04: minimum elevation drop used for Conduit C29
  WARNING 04: minimum elevation drop used for Conduit C30
  WARNING 04: minimum elevation drop used for Conduit C31
  WARNING 04: minimum elevation drop used for Conduit C32
  WARNING 04: minimum elevation drop used for Conduit C33
  WARNING 04: minimum elevation drop used for Conduit C34
  WARNING 04: minimum elevation drop used for Conduit C35
  WARNING 04: minimum elevation drop used for Conduit C36
  WARNING 04: minimum elevation drop used for Conduit C37
  WARNING 04: minimum elevation drop used for Conduit C38
  WARNING 04: minimum elevation drop used for Conduit C39
  WARNING 04: minimum elevation drop used for Conduit C40
  WARNING 04: minimum elevation drop used for Conduit C41
  WARNING 04: minimum elevation drop used for Conduit C43
  WARNING 04: minimum elevation drop used for Conduit C44
  WARNING 04: minimum elevation drop used for Conduit C45
  WARNING 04: minimum elevation drop used for Conduit C46
  WARNING 04: minimum elevation drop used for Conduit C48
  WARNING 04: minimum elevation drop used for Conduit C42
  WARNING 04: minimum elevation drop used for Conduit C50
  WARNING 04: minimum elevation drop used for Conduit C49
  WARNING 04: minimum elevation drop used for Conduit C01
  WARNING 04: minimum elevation drop used for Conduit C02
  WARNING 04: minimum elevation drop used for Conduit C03
  WARNING 04: minimum elevation drop used for Conduit C04
  WARNING 04: minimum elevation drop used for Conduit C05
  WARNING 04: minimum elevation drop used for Conduit C06
  WARNING 04: minimum elevation drop used for Conduit C07
  WARNING 04: minimum elevation drop used for Conduit C08
  WARNING 04: minimum elevation drop used for Conduit C09
  WARNING 04: minimum elevation drop used for Conduit C10
  WARNING 04: minimum elevation drop used for Conduit C11
  WARNING 04: minimum elevation drop used for Conduit C12
  WARNING 04: minimum elevation drop used for Conduit C13
  WARNING 04: minimum elevation drop used for Conduit C14
  WARNING 04: minimum elevation drop used for Conduit C15
  WARNING 04: minimum elevation drop used for Conduit C16
  WARNING 04: minimum elevation drop used for Conduit C17
  WARNING 04: minimum elevation drop used for Conduit C18
  WARNING 04: minimum elevation drop used for Conduit C19
  WARNING 04: minimum elevation drop used for Conduit C20
  WARNING 04: minimum elevation drop used for Conduit C21
  WARNING 04: minimum elevation drop used for Conduit C22
  WARNING 04: minimum elevation drop used for Conduit C47
  WARNING 04: minimum elevation drop used for Conduit Cout
  
  ****************
  Analysis Options
  ****************
  Flow Units ............... CMS
  Process Models:
    Rainfall/Runoff ........ YES
    RDII ................... NO
    Snowmelt ............... NO
    Groundwater ............ NO
    Flow Routing ........... YES
    Ponding Allowed ........ NO
    Water Quality .......... NO
  Infiltration Method ...... HORTON
  Flow Routing Method ...... DYNWAVE
  Surcharge Method ......... EXTRAN
  Starting Date ............ 11/05/2022 12:00:00
  Ending Date .............. 11/05/2022 12:40:00
  Antecedent Dry Days ...... 0.0
  Report Time Step ......... 00:10:00
  Wet Time Step ............ 00:05:00
  Dry Time Step ............ 01:00:00
  Routing Time Step ........ 300.00 sec
  Variable Time Step ....... YES
  Maximum Trials ........... 8
  Number of Threads ........ 1
  Head Tolerance ........... 0.001524 m
  
  
  *********************
  Rainfall File Summary
  *********************
  Station    First        Last         Recording   Periods    Periods    Periods
  ID         Date         Date         Frequency  w/Precip    Missing    Malfunc.
  -------------------------------------------------------------------------------
  189        11/05/2022   11/05/2022      10 min         5          0          0

  
  
  **************************        Volume         Depth
  Runoff Quantity Continuity     hectare-m            mm
  **************************     ---------       -------
  Total Precipitation ......       147.314      1473.200
  Evaporation Loss .........         0.000         0.000
  Infiltration Loss ........         0.000         0.000
  Surface Runoff ...........       139.259      1392.642
  Final Storage ............        10.657       106.576
  Continuity Error (%) .....        -1.766
  
  
  **************************        Volume        Volume
  Flow Routing Continuity        hectare-m      10^6 ltr
  **************************     ---------     ---------
  Dry Weather Inflow .......         0.000         0.000
  Wet Weather Inflow .......       130.442      1304.432
  Groundwater Inflow .......         0.000         0.000
  RDII Inflow ..............         0.000         0.000
  External Inflow ..........         0.000         0.000
  External Outflow .........         1.664        16.644
  Flooding Loss ............       122.588      1225.892
  Evaporation Loss .........         0.000         0.000
  Exfiltration Loss ........         0.000         0.000
  Initial Stored Volume ....         0.046         0.463
  Final Stored Volume ......         1.883        18.831
  Continuity Error (%) .....         3.336
  
  
  *************************
  Highest Continuity Errors
  *************************
  Node J30 (22.54%)
  Node J3 (18.21%)
  Node J17 (15.33%)
  Node J18 (14.94%)
  Node J24 (5.15%)
  
  
  ***************************
  Time-Step Critical Elements
  ***************************
  Link Cout (98.69%)
  
  
  ********************************
  Highest Flow Instability Indexes
  ********************************
  Link C24 (2)
  Link C31 (2)
  Link C33 (2)
  Link C34 (2)
  Link C46 (2)
  
  
  *********************************
  Most Frequent Nonconverging Nodes
  *********************************
  Convergence obtained at all time steps.
  
  
  *************************
  Routing Time Step Summary
  *************************
  Minimum Time Step           :     4.82 sec
  Average Time Step           :    15.69 sec
  Maximum Time Step           :   300.00 sec
  % of Time in Steady State   :     0.00
  Average Iterations per Step :     2.02
  % of Steps Not Converging   :     0.00
  Time Step Frequencies       :
     300.000 - 83.462 sec      :     0.66 %
     83.462 - 23.220 sec      :     0.00 %
     23.220 -  6.460 sec      :    98.68 %
      6.460 -  1.797 sec      :     0.66 %
      1.797 -  0.500 sec      :     0.00 %
  
  
  ***************************
  Subcatchment Runoff Summary
  ***************************
  
  ------------------------------------------------------------------------------------------------------------------------------
                            Total      Total      Total      Total     Imperv       Perv      Total       Total     Peak  Runoff
                           Precip      Runon       Evap      Infil     Runoff     Runoff     Runoff      Runoff   Runoff   Coeff
  Subcatchment                 mm         mm         mm         mm         mm         mm         mm    10^6 ltr      CMS
  ------------------------------------------------------------------------------------------------------------------------------
  S1                      1473.20       0.00       0.00       0.00      14.58    1458.62    1473.20      371.63   234.96   1.000
  S2                      1473.20       0.00       0.00       0.00      13.41    1460.28    1473.69       11.45     7.24   1.000
  S3                      1473.20       0.00       0.00       0.00      13.41    1459.79    1473.20        3.05     1.93   1.000
  S4                      1473.20       0.00       0.00       0.00      13.41    1459.79    1473.20        3.02     1.91   1.000
  S5                      1473.20       0.00       0.00       0.00      13.41    1459.79    1473.20        4.40     2.78   1.000
  S6                      1473.20       0.00       0.00       0.00      13.41    1459.79    1473.20       12.14     7.68   1.000
  S7                      1473.20       0.00       0.00       0.00      13.41    1459.79    1473.20        2.28     1.44   1.000
  S8                      1473.20       0.00       0.00       0.00      13.41    1459.79    1473.20        7.17     4.54   1.000
  S9                      1473.20       0.00       0.00       0.00      13.41    1459.79    1473.20        8.87     5.61   1.000
  S10                     1473.20       0.00       0.00       0.00       0.00    1459.79    1459.79        2.06     1.30   0.991
  S11                     1473.20       0.00       0.00       0.00      13.41    1422.66    1436.06       21.01    13.46   0.975
  S12                     1473.20       0.00       0.00       0.00      13.41    1459.79    1473.20       12.79     8.08   1.000
  S13                     1473.20       0.00       0.00       0.00       0.00    1459.79    1459.79       12.32     7.79   0.991
  S14                     1473.20       0.00       0.00       0.00      12.37    1460.83    1473.20       11.83     7.48   1.000
  S15                     1473.20       0.00       0.00       0.00      12.37    1460.83    1473.20       11.05     6.99   1.000
  S16                     1473.20       0.00       0.00       0.00      11.34    1459.57    1470.91       25.98    16.45   0.998
  S17                     1473.20       0.00       0.00       0.00      11.34    1341.21    1352.55       46.05    28.60   0.918
  S18                     1473.20       0.00       0.00       0.00      11.34    1461.87    1473.22        1.90     1.20   1.000
  S19                     1473.20       0.00       0.00       0.00      11.34       0.00      11.34        0.03     0.02   0.008
  S20                     1473.20       0.00       0.00       0.00      11.34    1461.85    1473.19        1.50     0.95   1.000
  S21                     1473.20       0.00       0.00       0.00      11.34    1446.82    1458.16       24.18    15.40   0.990
  S22                     1473.20       0.00       0.00       0.00      11.34    1461.82    1473.17        0.49     0.31   1.000
  S23                     1473.20       0.00       0.00       0.00      11.34    1461.86    1473.20        0.57     0.36   1.000
  S24                     1473.20       0.00       0.00       0.00      11.34    1461.86    1473.20        0.72     0.46   1.000
  S25                     1473.20       0.00       0.00       0.00      11.34    1461.86    1473.20        0.87     0.55   1.000
  S26                     1473.20       0.00       0.00       0.00      11.34    1461.86    1473.20        1.02     0.64   1.000
  S27                     1473.20       0.00       0.00       0.00      11.34    1462.00    1473.34       12.24     7.74   1.000
  S28                     1473.20       0.00       0.00       0.00      11.34    1449.51    1460.85       12.97     8.26   0.992
  S29                     1473.20       0.00       0.00       0.00      11.34    1461.86    1473.20        1.36     0.86   1.000
  S30                     1473.20       0.00       0.00       0.00      11.34    1301.75    1313.09       83.64    49.97   0.891
  S31                     1473.20       0.00       0.00       0.00      11.79    1461.41    1473.20       19.96    12.62   1.000
  S32                     1473.20       0.00       0.00       0.00      11.79    1461.41    1473.20        6.14     3.88   1.000
  S33                     1473.20       0.00       0.00       0.00      13.85    1459.35    1473.20        4.58     2.90   1.000
  S34                     1473.20       0.00       0.00       0.00      13.85    1459.35    1473.20        4.85     3.06   1.000
  S35                     1473.20       0.00       0.00       0.00      13.41    1459.79    1473.20        5.92     3.74   1.000
  S36                     1473.20       0.00       0.00       0.00      13.41    1459.79    1473.20        2.43     1.54   1.000
  S37                     1473.20       0.00       0.00       0.00      13.41    1459.79    1473.20        5.30     3.35   1.000
  S38                     1473.20       0.00       0.00       0.00      13.41    1459.79    1473.20        0.24     0.15   1.000
  S39                     1473.20       0.00       0.00       0.00      13.41    1459.79    1473.20        6.04     3.82   1.000
  S40                     1473.20       0.00       0.00       0.00      13.41    1459.79    1473.20        2.08     1.31   1.000
  S41                     1473.20       0.00       0.00       0.00      13.41    1459.79    1473.20        3.34     2.11   1.000
  S42                     1473.20       0.00       0.00       0.00      13.41    1459.79    1473.20        4.66     2.94   1.000
  S43                     1473.20       0.00       0.00       0.00      13.41    1459.79    1473.20       10.61     6.71   1.000
  S44                     1473.20       0.00       0.00       0.00      13.41    1459.79    1473.20        7.69     4.86   1.000
  S45                     1473.20       0.00       0.00       0.00      13.41    1459.79    1473.20        0.78     0.49   1.000
  S46                     1473.20       0.00       0.00       0.00      13.41    1459.79    1473.20        7.13     4.51   1.000
  S47                     1473.20       0.00       0.00       0.00      13.41    1459.79    1473.20       14.41     9.11   1.000
  S48                     1473.20       0.00       0.00       0.00      13.41    1459.79    1473.20       16.65    10.53   1.000
  S49                     1473.20       0.00       0.00       0.00      13.41    1459.79    1473.20       10.12     6.40   1.000
  S50                     1473.20       0.00       0.00       0.00      13.41    1459.79    1473.20        8.34     5.27   1.000
  S51                     1473.20       0.00       0.00       0.00      13.41    1459.79    1473.20        4.92     3.11   1.000
  S52                     1473.20       0.00       0.00       0.00      13.41    1459.79    1473.20       13.04     8.24   1.000
  S53                     1473.20       0.00       0.00       0.00      13.41    1448.51    1461.92       17.81    11.33   0.992
  S54                     1473.20       0.00       0.00       0.00      13.41    1460.27    1473.68        6.73     4.26   1.000
  S55                     1473.20       0.00       0.00       0.00      13.41    1459.79    1473.20        0.56     0.35   1.000
  S56                     1473.20       0.00       0.00       0.00      13.41    1459.76    1473.17        0.56     0.35   1.000
  S57                     1473.20       0.00       0.00       0.00      13.41    1459.79    1473.20        7.62     4.82   1.000
  S58                     1473.20       0.00       0.00       0.00      13.41    1459.79    1473.20        9.78     6.18   1.000
  S59                     1473.20       0.00       0.00       0.00      13.41    1459.79    1473.20        9.50     6.01   1.000
  S60                     1473.20       0.00       0.00       0.00      11.34    1462.27    1473.61        5.79     3.66   1.000
  S61                     1473.20       0.00       0.00       0.00      11.34       0.00      11.34        0.04     0.02   0.008
  S62                     1473.20       0.00       0.00       0.00      11.34    1274.06    1285.41       68.89    39.80   0.873
  S63                     1473.20       0.00       0.00       0.00      11.34    1461.86    1473.20       13.85     8.76   1.000
  S64                     1473.20       0.00       0.00       0.00      11.34    1461.86    1473.20       37.49    23.71   1.000
  S65                     1473.20       0.00       0.00       0.00      11.34    1461.86    1473.20        5.98     3.78   1.000
  S66                     1473.20       0.00       0.00       0.00      11.34    1461.86    1473.20        9.65     6.10   1.000
  S67                     1473.20       0.00       0.00       0.00      11.34    1461.86    1473.20       18.03    11.40   1.000
  S68                     1473.20       0.00       0.00       0.00      11.34    1461.86    1473.20       21.14    13.37   1.000
  S69                     1473.20       0.00       0.00       0.00      11.34       0.00      11.34        0.28     0.18   0.008
  S70                     1473.20       0.00       0.00       0.00      11.34    1445.53    1456.87       38.13    24.30   0.989
  S71                     1473.20       0.00       0.00       0.00      13.41    1459.79    1473.20       21.67    13.70   1.000
  S72                     1473.20       0.00       0.00       0.00      11.34    1460.73    1472.08        7.30     4.62   0.999
  S73                     1473.20       0.00       0.00       0.00      11.34    1461.86    1473.20       30.88    19.52   1.000
  S74                     1473.20       0.00       0.00       0.00      11.34       0.00      11.34        0.07     0.05   0.008
  S75                     1473.20       0.00       0.00       0.00      11.34    1461.86    1473.20        0.99     0.62   1.000
  S76                     1473.20       0.00       0.00       0.00      11.34    1461.86    1473.20       19.46    12.30   1.000
  S77                     1473.20       0.00       0.00       0.00      11.34    1461.86    1473.20       15.75     9.96   1.000
  S78                     1473.20       0.00       0.00       0.00      11.34    1461.86    1473.20       11.42     7.22   1.000
  S79                     1473.20       0.00       0.00       0.00      13.41    1459.79    1473.20       10.00     6.32   1.000
  S80                     1473.20       0.00       0.00       0.00      11.34    1461.99    1473.34        4.07     2.57   1.000
  S81                     1473.20       0.00       0.00       0.00      11.34    1461.86    1473.20       16.66    10.53   1.000
  S82                     1473.20       0.00       0.00       0.00      11.34    1461.86    1473.20       16.26    10.28   1.000
  S83                     1473.20       0.00       0.00       0.00      11.34    1461.86    1473.20       10.46     6.61   1.000
  S84                     1473.20       0.00       0.00       0.00      13.41    1459.79    1473.20        6.84     4.32   1.000
  S85                     1473.20       0.00       0.00       0.00      13.41    1453.50    1466.90       18.13    11.50   0.996
  S86                     1473.20       0.00       0.00       0.00       0.00    1459.79    1459.79       16.89    10.68   0.991
  S87                     1473.20       0.00       0.00       0.00      13.41    1459.79    1473.20       18.30    11.57   1.000
  S88                     1473.20       0.00       0.00       0.00      13.41    1459.79    1473.20        3.30     2.09   1.000
  S89                     1473.20       0.00       0.00       0.00      13.41    1459.79    1473.20       14.89     9.42   1.000
  S90                     1473.20       0.00       0.00       0.00       0.00    1459.79    1459.79        7.17     4.53   0.991
  S91                     1473.20       0.00       0.00       0.00      13.41    1459.79    1473.20        2.43     1.54   1.000
  
  
  ******************
  Node Depth Summary
  ******************
  
  ---------------------------------------------------------------------------------
                                 Average  Maximum  Maximum  Time of Max    Reported
                                   Depth    Depth      HGL   Occurrence   Max Depth
  Node                 Type       Meters   Meters   Meters  days hr:min      Meters
  ---------------------------------------------------------------------------------
  J7                   JUNCTION     2.48     2.50     2.50     0  00:05        2.50
  J13                  JUNCTION     2.48     2.50     2.50     0  00:05        2.50
  J19                  JUNCTION     2.48     2.50     2.50     0  00:05        2.50
  J25                  JUNCTION     2.48     2.50     2.50     0  00:05        2.50
  J1                   JUNCTION     2.48     2.50     2.50     0  00:05        2.50
  J2                   JUNCTION     2.48     2.50     2.50     0  00:05        2.50
  J3                   JUNCTION     2.48     2.50     2.50     0  00:05        2.50
  J4                   JUNCTION     2.48     2.50     2.50     0  00:05        2.50
  J5                   JUNCTION     2.48     2.50     2.50     0  00:05        2.50
  J6                   JUNCTION     2.48     2.50     2.50     0  00:05        2.50
  J8                   JUNCTION     2.48     2.50     2.50     0  00:05        2.50
  J9                   JUNCTION     2.48     2.50     2.50     0  00:05        2.50
  J10                  JUNCTION     2.48     2.50     2.50     0  00:05        2.50
  J11                  JUNCTION     2.48     2.50     2.50     0  00:05        2.50
  J12                  JUNCTION     2.48     2.50     2.50     0  00:05        2.50
  J14                  JUNCTION     2.48     2.50     2.50     0  00:05        2.50
  J15                  JUNCTION     2.48     2.50     2.50     0  00:05        2.50
  J16                  JUNCTION     2.48     2.50     2.50     0  00:05        2.50
  J17                  JUNCTION     2.48     2.50     2.50     0  00:05        2.50
  J18                  JUNCTION     2.48     2.50     2.50     0  00:05        2.50
  J20                  JUNCTION     2.48     2.50     2.50     0  00:05        2.50
  J21                  JUNCTION     2.48     2.50     2.50     0  00:05        2.50
  J22                  JUNCTION     2.48     2.50     2.50     0  00:05        2.50
  J23                  JUNCTION     2.48     2.50     2.50     0  00:05        2.50
  J24                  JUNCTION     2.48     2.50     2.50     0  00:05        2.50
  J26                  JUNCTION     2.48     2.50     2.50     0  00:05        2.50
  J27                  JUNCTION     2.48     2.50     2.50     0  00:05        2.50
  J29                  JUNCTION     2.48     2.50     2.50     0  00:05        2.50
  J30                  JUNCTION     2.48     2.50     2.50     0  00:05        2.50
  J31                  JUNCTION     2.48     2.50     2.50     0  00:05        2.50
  J33                  JUNCTION     2.48     2.50     2.50     0  00:05        2.50
  J32                  JUNCTION     2.48     2.50     2.50     0  00:05        2.50
  J28                  JUNCTION     2.48     2.50     2.50     0  00:05        2.50
  OF                   OUTFALL      1.36     1.42     1.42     0  00:05        1.37
  
  
  *******************
  Node Inflow Summary
  *******************
  
  -------------------------------------------------------------------------------------------------
                                  Maximum  Maximum                  Lateral       Total        Flow
                                  Lateral    Total  Time of Max      Inflow      Inflow     Balance
                                   Inflow   Inflow   Occurrence      Volume      Volume       Error
  Node                 Type           CMS      CMS  days hr:min    10^6 ltr    10^6 ltr     Percent
  -------------------------------------------------------------------------------------------------
  J7                   JUNCTION    55.204   55.204     0  00:10        86.7        86.7       3.369
  J13                  JUNCTION     5.314    5.314     0  00:10        7.88        7.88       5.342
  J19                  JUNCTION   251.817  251.817     0  00:10         373         373       5.213
  J25                  JUNCTION    28.598   28.598     0  00:10        42.9        42.9       2.458
  J1                   JUNCTION    21.139   21.139     0  00:05        31.4        31.4       5.408
  J2                   JUNCTION    15.881   15.881     0  00:10        23.6        23.6       4.312
  J3                   JUNCTION     0.708   21.675     0  00:05        1.05        8.54      22.268
  J4                   JUNCTION    45.985   46.053     0  00:05        68.2        68.4       4.018
  J5                   JUNCTION    38.021   38.021     0  00:10        56.4        56.4       3.863
  J6                   JUNCTION    16.635   16.635     0  00:10        24.7        24.7       5.407
  J8                   JUNCTION    25.596   25.596     0  00:10          38          38       5.408
  J9                   JUNCTION    11.505   11.505     0  00:10          17          17       4.553
  J10                  JUNCTION    17.176   17.176     0  00:10        25.5        25.5       5.151
  J11                  JUNCTION    18.452   18.829     0  00:05        27.4          28       3.907
  J12                  JUNCTION    19.523   19.553     0  00:05          29          29       3.944
  J14                  JUNCTION    16.542   16.542     0  00:10        24.5        24.5       5.408
  J15                  JUNCTION    23.659   23.659     0  00:10          35          35       5.120
  J16                  JUNCTION    13.701   15.464     0  00:05        20.3        22.3       4.415
  J17                  JUNCTION     0.178   14.722     0  00:05       0.264        6.89      18.110
  J18                  JUNCTION     0.624   11.666     0  00:05       0.926        5.35      17.562
  J20                  JUNCTION    46.117   46.117     0  00:10        68.1        68.1       5.192
  J21                  JUNCTION    15.269   15.269     0  00:10        22.6        22.6       5.408
  J22                  JUNCTION    31.290   31.290     0  00:10        46.1        46.1       4.906
  J23                  JUNCTION    16.446   16.902     0  00:10        24.4        25.1       3.626
  J24                  JUNCTION     2.169    2.708     0  00:05        3.22        3.99       5.424
  J26                  JUNCTION    13.487   13.487     0  00:05          20          20       5.408
  J27                  JUNCTION    11.829   14.844     0  00:05        17.5        19.7       4.116
  J29                  JUNCTION    19.402   20.185     0  00:05        28.8        29.8       3.445
  J30                  JUNCTION     0.000   28.975     0  00:05           0         9.2      29.106
  J31                  JUNCTION    49.968   49.968     0  00:10        77.8        77.8       1.951
  J33                  JUNCTION    19.090   19.090     0  00:10        28.3        28.3       5.405
  J32                  JUNCTION     8.709    8.709     0  00:05        12.9        12.9       5.182
  J28                  JUNCTION    13.925   16.770     0  00:05        20.7        22.8       4.277
  OF                   OUTFALL      0.000    7.984     0  00:05           0        16.6       0.000
  
  
  **********************
  Node Surcharge Summary
  **********************
  
  Surcharging occurs when water rises above the top of the highest conduit.
  ---------------------------------------------------------------------
                                               Max. Height   Min. Depth
                                   Hours       Above Crown    Below Rim
  Node                 Type      Surcharged         Meters       Meters
  ---------------------------------------------------------------------
  J7                   JUNCTION        0.67          0.850        0.000
  J13                  JUNCTION        0.67          0.850        0.000
  J19                  JUNCTION        0.67          0.850        0.000
  J25                  JUNCTION        0.67          0.850        0.000
  J1                   JUNCTION        0.67          0.850        0.000
  J2                   JUNCTION        0.67          0.850        0.000
  J3                   JUNCTION        0.67          0.850        0.000
  J4                   JUNCTION        0.67          0.850        0.000
  J5                   JUNCTION        0.67          0.850        0.000
  J6                   JUNCTION        0.67          0.850        0.000
  J8                   JUNCTION        0.67          0.850        0.000
  J9                   JUNCTION        0.67          0.850        0.000
  J10                  JUNCTION        0.67          0.850        0.000
  J11                  JUNCTION        0.67          0.850        0.000
  J12                  JUNCTION        0.67          0.850        0.000
  J14                  JUNCTION        0.67          0.850        0.000
  J15                  JUNCTION        0.67          0.850        0.000
  J16                  JUNCTION        0.67          0.850        0.000
  J17                  JUNCTION        0.67          0.850        0.000
  J18                  JUNCTION        0.67          0.850        0.000
  J20                  JUNCTION        0.67          0.850        0.000
  J21                  JUNCTION        0.67          0.850        0.000
  J22                  JUNCTION        0.67          0.850        0.000
  J23                  JUNCTION        0.67          0.850        0.000
  J24                  JUNCTION        0.67          0.850        0.000
  J26                  JUNCTION        0.67          0.850        0.000
  J27                  JUNCTION        0.67          0.850        0.000
  J29                  JUNCTION        0.67          0.850        0.000
  J30                  JUNCTION        0.67          0.850        0.000
  J31                  JUNCTION        0.67          0.850        0.000
  J33                  JUNCTION        0.67          0.850        0.000
  J32                  JUNCTION        0.67          0.850        0.000
  J28                  JUNCTION        0.67          0.850        0.000
  
  
  *********************
  Node Flooding Summary
  *********************
  
  Flooding refers to all water that overflows a node, whether it ponds or not.
  --------------------------------------------------------------------------
                                                             Total   Maximum
                                 Maximum   Time of Max       Flood    Ponded
                        Hours       Rate    Occurrence      Volume     Depth
  Node                 Flooded       CMS   days hr:min    10^6 ltr    Meters
  --------------------------------------------------------------------------
  J7                      0.67    54.766      0  00:10      86.207     0.000
  J13                     0.67     5.313      0  00:10       7.876     0.000
  J19                     0.67   244.462      0  00:10     356.796     0.000
  J25                     0.67    27.239      0  00:10      40.298     0.000
  J1                      0.67    21.139      0  00:05      31.356     0.000
  J2                      0.67    14.431      0  00:10      21.264     0.000
  J3                      0.67    19.609      0  00:05       8.538     0.000
  J4                      0.67    44.511      0  00:10      64.355     0.000
  J5                      0.67    36.627      0  00:10      52.722     0.000
  J6                      0.67    16.635      0  00:10      24.678     0.000
  J8                      0.67    25.596      0  00:10      37.967     0.000
  J9                      0.67    10.819      0  00:10      15.927     0.000
  J10                     0.67    16.573      0  00:10      24.453     0.000
  J11                     0.67    17.682      0  00:10      25.754     0.000
  J12                     0.67    18.478      0  00:10      26.838     0.000
  J14                     0.67    16.542      0  00:10      24.538     0.000
  J15                     0.67    23.221      0  00:10      34.288     0.000
  J16                     0.67    13.976      0  00:10      20.630     0.000
  J17                     0.67    13.786      0  00:05       6.892     0.000
  J18                     0.67    10.321      0  00:05       4.734     0.000
  J20                     0.67    46.100      0  00:10      68.090     0.000
  J21                     0.67    15.269      0  00:10      22.650     0.000
  J22                     0.67    30.473      0  00:10      44.784     0.000
  J23                     0.67    15.822      0  00:10      22.899     0.000
  J24                     0.67     2.705      0  00:05       3.985     0.000
  J26                     0.67    13.487      0  00:05      20.006     0.000
  J27                     0.67    12.180      0  00:10      17.722     0.000
  J29                     0.67    18.266      0  00:10      26.414     0.000
  J30                     0.67    25.657      0  00:05       9.196     0.000
  J31                     0.67    48.661      0  00:10      74.367     0.000
  J33                     0.67    19.090      0  00:10      28.321     0.000
  J32                     0.67     8.429      0  00:10      12.443     0.000
  J28                     0.67    14.254      0  00:10      20.793     0.000
  
  
  ***********************
  Outfall Loading Summary
  ***********************
  
  -----------------------------------------------------------
                         Flow       Avg       Max       Total
                         Freq      Flow      Flow      Volume
  Outfall Node           Pcnt       CMS       CMS    10^6 ltr
  -----------------------------------------------------------
  OF                   100.00     7.312     7.984      16.644
  -----------------------------------------------------------
  System               100.00     7.312     7.984      16.644
  
  
  ********************
  Link Flow Summary
  ********************
  
  -----------------------------------------------------------------------------
                                 Maximum  Time of Max   Maximum    Max/    Max/
                                  |Flow|   Occurrence   |Veloc|    Full    Full
  Link                 Type          CMS  days hr:min     m/sec    Flow   Depth
  -----------------------------------------------------------------------------
  P1                   PUMP        0.000     0  00:00                          
  C23                  CONDUIT     0.000     0  00:00      0.00    0.00    1.00
  C24                  CONDUIT     0.563     0  00:05      0.26    4.87    1.00
  C25                  CONDUIT     0.000     0  00:00      0.00    0.00    1.00
  C26                  CONDUIT     0.209     0  00:05      0.10    1.64    1.00
  C27                  CONDUIT     0.000     0  00:00      0.00    0.00    1.00
  C28                  CONDUIT     1.418     0  00:05      0.66    9.77    1.00
  C29                  CONDUIT     0.000     0  00:00      0.00    0.00    1.00
  C30                  CONDUIT     0.031     0  00:05      0.01    0.27    1.00
  C31                  CONDUIT     0.167     0  00:05      0.08    1.46    1.00
  C32                  CONDUIT     4.609     0  00:05      2.16   29.79    1.00
  C33                  CONDUIT    11.653     0  00:05      5.45   68.18    1.00
  C34                  CONDUIT     0.037     0  00:05      0.02    0.30    1.00
  C35                  CONDUIT     0.000     0  00:05      0.00    0.00    1.00
  C36                  CONDUIT     0.000     0  00:05      0.00    0.00    1.00
  C37                  CONDUIT     1.427     0  00:05      0.67    9.80    1.00
  C38                  CONDUIT     1.831     0  00:05      0.86   12.76    1.00
  C39                  CONDUIT     4.705     0  00:05      2.20   29.82    1.00
  C40                  CONDUIT     0.000     0  00:00      0.00    0.00    1.00
  C41                  CONDUIT     0.000     0  00:00      0.00    0.00    1.00
  C43                  CONDUIT     0.000     0  00:00      0.00    0.00    1.00
  C44                  CONDUIT     0.425     0  00:05      0.20    3.63    1.00
  C45                  CONDUIT    10.912     0  00:05      5.10   93.63    1.00
  C46                  CONDUIT    11.699     0  00:05      5.47   96.95    1.00
  C48                  CONDUIT     0.000     0  00:05      0.00    0.00    1.00
  C42                  CONDUIT     6.363     0  00:05      2.98   50.45    1.00
  C50                  CONDUIT     0.357     0  00:05      0.17    3.45    1.00
  C49                  CONDUIT     1.197     0  00:05      0.56   10.45    1.00
  C01                  CONDUIT     0.000     0  00:00      0.00    0.00    1.00
  C02                  CONDUIT     0.000     0  00:00      0.00    0.00    1.00
  C03                  CONDUIT     0.605     0  00:05      0.28    4.83    1.00
  C04                  CONDUIT     0.047     0  00:05      0.02    0.37    1.00
  C05                  CONDUIT     0.177     0  00:05      0.08    1.41    1.00
  C06                  CONDUIT     0.000     0  00:00      0.00    0.00    1.00
  C07                  CONDUIT     0.000     0  00:00      0.00    0.00    1.00
  C08                  CONDUIT     0.000     0  00:00      0.00    0.00    1.00
  C09                  CONDUIT     0.553     0  00:05      0.26    4.84    1.00
  C10                  CONDUIT     0.647     0  00:05      0.30    5.16    1.00
  C11                  CONDUIT     0.000     0  00:00      0.00    0.00    1.00
  C12                  CONDUIT     5.524     0  00:05      2.58   47.58    1.00
  C13                  CONDUIT     5.640     0  00:05      2.64   49.08    1.00
  C14                  CONDUIT     3.202     0  00:05      1.50   25.44    1.00
  C15                  CONDUIT     0.537     0  00:05      0.25    4.27    1.00
  C16                  CONDUIT     0.362     0  00:05      0.17    3.18    1.00
  C17                  CONDUIT     5.281     0  00:05      2.47   46.61    1.00
  C18                  CONDUIT     0.000     0  00:00      0.00    0.00    1.00
  C19                  CONDUIT     0.000     0  00:00      0.00    0.00    1.00
  C20                  CONDUIT     5.402     0  00:05      2.53   48.09    1.00
  C21                  CONDUIT     0.000     0  00:05      0.00    0.00    1.00
  C22                  CONDUIT     0.030     0  00:05      0.01    0.24    1.00
  C47                  CONDUIT     0.000     0  00:00      0.00    0.00    1.00
  Cout                 CONDUIT     7.984     0  00:05      3.85   63.04    0.93
  
  
  ***************************
  Flow Classification Summary
  ***************************
  
  -------------------------------------------------------------------------------------
                      Adjusted    ---------- Fraction of Time in Flow Class ---------- 
                       /Actual         Up    Down  Sub   Sup   Up    Down  Norm  Inlet 
  Conduit               Length    Dry  Dry   Dry   Crit  Crit  Crit  Crit  Ltd   Ctrl  
  -------------------------------------------------------------------------------------
  C23                     1.00   0.00  0.00  0.00  1.00  0.00  0.00  0.00  0.00  0.00
  C24                     1.00   0.00  0.00  0.00  1.00  0.00  0.00  0.00  0.00  0.00
  C25                     1.00   0.00  0.00  0.00  1.00  0.00  0.00  0.00  0.00  0.00
  C26                     1.00   0.00  0.00  0.00  1.00  0.00  0.00  0.00  0.00  0.00
  C27                     1.00   0.00  0.00  0.00  1.00  0.00  0.00  0.00  0.00  0.00
  C28                     1.00   0.00  0.00  0.00  1.00  0.00  0.00  0.00  0.00  0.00
  C29                     1.00   0.00  0.00  0.00  1.00  0.00  0.00  0.00  0.00  0.00
  C30                     1.00   0.00  0.00  0.00  1.00  0.00  0.00  0.00  0.00  0.00
  C31                     1.00   0.00  0.00  0.00  1.00  0.00  0.00  0.00  0.00  0.00
  C32                     1.00   0.00  0.00  0.00  1.00  0.00  0.00  0.00  0.00  0.00
  C33                     1.00   0.00  0.00  0.00  1.00  0.00  0.00  0.00  0.00  0.00
  C34                     1.00   0.00  0.00  0.00  1.00  0.00  0.00  0.00  0.00  0.00
  C35                     1.00   0.00  0.00  0.00  1.00  0.00  0.00  0.00  0.00  0.00
  C36                     1.00   0.00  0.00  0.00  1.00  0.00  0.00  0.00  0.00  0.00
  C37                     1.00   0.00  0.00  0.00  1.00  0.00  0.00  0.00  0.00  0.00
  C38                     1.00   0.00  0.00  0.00  1.00  0.00  0.00  0.00  0.00  0.00
  C39                     1.00   0.00  0.00  0.00  1.00  0.00  0.00  0.00  0.00  0.00
  C40                     1.00   0.00  0.00  0.00  1.00  0.00  0.00  0.00  0.00  0.00
  C41                     1.00   0.00  0.00  0.00  1.00  0.00  0.00  0.00  0.00  0.00
  C43                     1.00   0.00  0.00  0.00  1.00  0.00  0.00  0.00  0.00  0.00
  C44                     1.00   0.00  0.00  0.00  1.00  0.00  0.00  0.00  0.00  0.00
  C45                     1.00   0.00  0.00  0.00  1.00  0.00  0.00  0.00  0.00  0.00
  C46                     1.00   0.00  0.00  0.00  1.00  0.00  0.00  0.00  0.00  0.00
  C48                     1.00   0.00  0.00  0.00  1.00  0.00  0.00  0.00  0.00  0.00
  C42                     1.00   0.00  0.00  0.00  1.00  0.00  0.00  0.00  0.00  0.00
  C50                     1.00   0.00  0.00  0.00  1.00  0.00  0.00  0.00  0.00  0.00
  C49                     1.00   0.00  0.00  0.00  1.00  0.00  0.00  0.00  0.00  0.00
  C01                     1.00   0.00  0.00  0.00  1.00  0.00  0.00  0.00  0.00  0.00
  C02                     1.00   0.00  0.00  0.00  1.00  0.00  0.00  0.00  0.00  0.00
  C03                     1.00   0.00  0.00  0.00  1.00  0.00  0.00  0.00  0.00  0.00
  C04                     1.00   0.00  0.00  0.00  1.00  0.00  0.00  0.00  0.00  0.00
  C05                     1.00   0.00  0.00  0.00  1.00  0.00  0.00  0.00  0.00  0.00
  C06                     1.00   0.00  0.00  0.00  1.00  0.00  0.00  0.00  0.00  0.00
  C07                     1.00   0.00  0.00  0.00  1.00  0.00  0.00  0.00  0.00  0.00
  C08                     1.00   0.00  0.00  0.00  1.00  0.00  0.00  0.00  0.00  0.00
  C09                     1.00   0.00  0.00  0.00  1.00  0.00  0.00  0.00  0.00  0.00
  C10                     1.00   0.00  0.00  0.00  1.00  0.00  0.00  0.00  0.00  0.00
  C11                     1.00   0.00  0.00  0.00  1.00  0.00  0.00  0.00  0.00  0.00
  C12                     1.00   0.00  0.00  0.00  1.00  0.00  0.00  0.00  0.00  0.00
  C13                     1.00   0.00  0.00  0.00  1.00  0.00  0.00  0.00  0.00  0.00
  C14                     1.00   0.00  0.00  0.00  1.00  0.00  0.00  0.00  0.00  0.00
  C15                     1.00   0.00  0.00  0.00  1.00  0.00  0.00  0.00  0.00  0.00
  C16                     1.00   0.00  0.00  0.00  1.00  0.00  0.00  0.00  0.00  0.00
  C17                     1.00   0.00  0.00  0.00  1.00  0.00  0.00  0.00  0.00  0.00
  C18                     1.00   0.00  0.00  0.00  1.00  0.00  0.00  0.00  0.00  0.00
  C19                     1.00   0.00  0.00  0.00  1.00  0.00  0.00  0.00  0.00  0.00
  C20                     1.00   0.00  0.00  0.00  1.00  0.00  0.00  0.00  0.00  0.00
  C21                     1.00   0.00  0.00  0.00  1.00  0.00  0.00  0.00  0.00  0.00
  C22                     1.00   0.00  0.00  0.00  1.00  0.00  0.00  0.00  0.00  0.00
  C47                     1.00   0.00  0.00  0.00  1.00  0.00  0.00  0.00  0.00  0.00
  Cout                    1.00   0.00  0.00  0.00  1.00  0.00  0.00  0.00  0.00  0.00
  
  
  *************************
  Conduit Surcharge Summary
  *************************
  
  ----------------------------------------------------------------------------
                                                           Hours        Hours 
                         --------- Hours Full --------   Above Full   Capacity
  Conduit                Both Ends  Upstream  Dnstream   Normal Flow   Limited
  ----------------------------------------------------------------------------
  C23                         0.67      0.67      0.67      0.01         0.01
  C24                         0.67      0.67      0.67      0.67         0.01
  C25                         0.67      0.67      0.67      0.01         0.01
  C26                         0.67      0.67      0.67      0.42         0.01
  C27                         0.67      0.67      0.67      0.01         0.01
  C28                         0.67      0.67      0.67      0.67         0.01
  C29                         0.67      0.67      0.67      0.01         0.01
  C30                         0.67      0.67      0.67      0.01         0.01
  C31                         0.67      0.67      0.67      0.39         0.01
  C32                         0.67      0.67      0.67      0.67         0.01
  C33                         0.67      0.67      0.67      0.67         0.01
  C34                         0.67      0.67      0.67      0.01         0.01
  C35                         0.67      0.67      0.67      0.01         0.01
  C36                         0.67      0.67      0.67      0.01         0.01
  C37                         0.67      0.67      0.67      0.67         0.01
  C38                         0.67      0.67      0.67      0.67         0.01
  C39                         0.67      0.67      0.67      0.67         0.01
  C40                         0.67      0.67      0.67      0.01         0.01
  C41                         0.67      0.67      0.67      0.01         0.01
  C43                         0.67      0.67      0.67      0.01         0.01
  C44                         0.67      0.67      0.67      0.67         0.01
  C45                         0.67      0.67      0.67      0.67         0.01
  C46                         0.67      0.67      0.67      0.67         0.01
  C48                         0.67      0.67      0.67      0.01         0.01
  C42                         0.67      0.67      0.67      0.67         0.01
  C50                         0.67      0.67      0.67      0.67         0.01
  C49                         0.67      0.67      0.67      0.67         0.01
  C01                         0.67      0.67      0.67      0.01         0.01
  C02                         0.67      0.67      0.67      0.01         0.01
  C03                         0.67      0.67      0.67      0.67         0.01
  C04                         0.67      0.67      0.67      0.01         0.01
  C05                         0.67      0.67      0.67      0.34         0.01
  C06                         0.67      0.67      0.67      0.01         0.01
  C07                         0.67      0.67      0.67      0.01         0.01
  C08                         0.67      0.67      0.67      0.01         0.01
  C09                         0.67      0.67      0.67      0.67         0.01
  C10                         0.67      0.67      0.67      0.67         0.01
  C11                         0.67      0.67      0.67      0.01         0.01
  C12                         0.67      0.67      0.67      0.67         0.01
  C13                         0.67      0.67      0.67      0.67         0.01
  C14                         0.67      0.67      0.67      0.67         0.01
  C15                         0.67      0.67      0.67      0.67         0.01
  C16                         0.67      0.67      0.67      0.67         0.01
  C17                         0.67      0.67      0.67      0.67         0.01
  C18                         0.67      0.67      0.67      0.01         0.01
  C19                         0.67      0.67      0.67      0.01         0.01
  C20                         0.67      0.67      0.67      0.67         0.01
  C21                         0.67      0.67      0.67      0.01         0.01
  C22                         0.67      0.67      0.67      0.01         0.01
  C47                         0.67      0.67      0.67      0.01         0.01
  Cout                        0.01      0.67      0.01      0.67         0.01
  
  
  ***************
  Pumping Summary
  ***************
  
  ---------------------------------------------------------------------------------------------------------
                                                  Min       Avg       Max     Total     Power    % Time Off
                        Percent   Number of      Flow      Flow      Flow    Volume     Usage    Pump Curve
  Pump                 Utilized   Start-Ups       CMS       CMS       CMS  10^6 ltr     Kw-hr    Low   High
  ---------------------------------------------------------------------------------------------------------
  P1                       0.00           0      0.00      0.00      0.00     0.000      0.00    0.0    0.0
  

  Analysis begun on:  Mon Nov 25 18:31:12 2024
  Analysis ended on:  Mon Nov 25 18:31:12 2024
  Total elapsed time: < 1 sec