
  EPA STORM WATER MANAGEMENT MODEL - VERSION 5.2 (Build 5.2.4)
  PYSWMM TOOLKIT API - VERSION v1.0 (2023-11-27)
  ------------------------------------------------------------

  WARNING 04: minimum elevation drop used for Conduit C23
  WARNING 04: minimum elevation drop used for Conduit C24
  WARNING 04: minimum elevation drop used for Conduit C25
  WARNING 04: minimum elevation drop used for Conduit C26
  WARNING 04: minimum elevation drop used for Conduit C27
  WARNING 04: minimum elevation drop used for Conduit C28
  WARNING 04: minimum elevation drop used for Conduit C29
  WARNING 04: minimum elevation drop used for Conduit C30
  WARNING 04: minimum elevation drop used for Conduit C31
  WARNING 04: minimum elevation drop used for Conduit C32
  WARNING 04: minimum elevation drop used for Conduit C33
  WARNING 04: minimum elevation drop used for Conduit C34
  WARNING 04: minimum elevation drop used for Conduit C35
  WARNING 04: minimum elevation drop used for Conduit C36
  WARNING 04: minimum elevation drop used for Conduit C37
  WARNING 04: minimum elevation drop used for Conduit C38
  WARNING 04: minimum elevation drop used for Conduit C39
  WARNING 04: minimum elevation drop used for Conduit C40
  WARNING 04: minimum elevation drop used for Conduit C41
  WARNING 04: minimum elevation drop used for Conduit C43
  WARNING 04: minimum elevation drop used for Conduit C44
  WARNING 04: minimum elevation drop used for Conduit C45
  WARNING 04: minimum elevation drop used for Conduit C46
  WARNING 04: minimum elevation drop used for Conduit C48
  WARNING 04: minimum elevation drop used for Conduit C42
  WARNING 04: minimum elevation drop used for Conduit C50
  WARNING 04: minimum elevation drop used for Conduit C49
  WARNING 04: minimum elevation drop used for Conduit C01
  WARNING 04: minimum elevation drop used for Conduit C02
  WARNING 04: minimum elevation drop used for Conduit C03
  WARNING 04: minimum elevation drop used for Conduit C04
  WARNING 04: minimum elevation drop used for Conduit C05
  WARNING 04: minimum elevation drop used for Conduit C06
  WARNING 04: minimum elevation drop used for Conduit C07
  WARNING 04: minimum elevation drop used for Conduit C08
  WARNING 04: minimum elevation drop used for Conduit C09
  WARNING 04: minimum elevation drop used for Conduit C10
  WARNING 04: minimum elevation drop used for Conduit C11
  WARNING 04: minimum elevation drop used for Conduit C12
  WARNING 04: minimum elevation drop used for Conduit C13
  WARNING 04: minimum elevation drop used for Conduit C14
  WARNING 04: minimum elevation drop used for Conduit C15
  WARNING 04: minimum elevation drop used for Conduit C16
  WARNING 04: minimum elevation drop used for Conduit C17
  WARNING 04: minimum elevation drop used for Conduit C18
  WARNING 04: minimum elevation drop used for Conduit C19
  WARNING 04: minimum elevation drop used for Conduit C20
  WARNING 04: minimum elevation drop used for Conduit C21
  WARNING 04: minimum elevation drop used for Conduit C22
  WARNING 04: minimum elevation drop used for Conduit C47
  WARNING 04: minimum elevation drop used for Conduit Cout
  
  ****************
  Analysis Options
  ****************
  Flow Units ............... CMS
  Process Models:
    Rainfall/Runoff ........ YES
    RDII ................... NO
    Snowmelt ............... NO
    Groundwater ............ NO
    Flow Routing ........... YES
    Ponding Allowed ........ NO
    Water Quality .......... NO
  Infiltration Method ...... HORTON
  Flow Routing Method ...... DYNWAVE
  Surcharge Method ......... EXTRAN
  Starting Date ............ 08/08/2022 17:00:00
  Ending Date .............. 08/08/2022 17:50:00
  Antecedent Dry Days ...... 0.0
  Report Time Step ......... 00:10:00
  Wet Time Step ............ 00:05:00
  Dry Time Step ............ 01:00:00
  Routing Time Step ........ 300.00 sec
  Variable Time Step ....... YES
  Maximum Trials ........... 8
  Number of Threads ........ 1
  Head Tolerance ........... 0.001524 m
  
  
  *********************
  Rainfall File Summary
  *********************
  Station    First        Last         Recording   Periods    Periods    Periods
  ID         Date         Date         Frequency  w/Precip    Missing    Malfunc.
  -------------------------------------------------------------------------------
  426        08/08/2022   08/08/2022      10 min         6          0          0

  
  
  **************************        Volume         Depth
  Runoff Quantity Continuity     hectare-m            mm
  **************************     ---------       -------
  Total Precipitation ......        50.745       507.471
  Evaporation Loss .........         0.000         0.000
  Infiltration Loss ........         0.000         0.000
  Surface Runoff ...........        46.105       461.065
  Final Storage ............         6.373        63.730
  Continuity Error (%) .....        -3.414
  
  
  **************************        Volume        Volume
  Flow Routing Continuity        hectare-m      10^6 ltr
  **************************     ---------     ---------
  Dry Weather Inflow .......         0.000         0.000
  Wet Weather Inflow .......        37.774       377.746
  Groundwater Inflow .......         0.000         0.000
  RDII Inflow ..............         0.000         0.000
  External Inflow ..........         0.000         0.000
  External Outflow .........         1.382        13.825
  Flooding Loss ............        34.327       343.271
  Evaporation Loss .........         0.000         0.000
  Exfiltration Loss ........         0.000         0.000
  Initial Stored Volume ....         0.046         0.463
  Final Stored Volume ......         1.883        18.831
  Continuity Error (%) .....         0.603
  
  
  *************************
  Highest Continuity Errors
  *************************
  Node J30 (26.50%)
  Node J3 (18.90%)
  Node J17 (18.27%)
  Node J18 (17.83%)
  Node J24 (13.16%)
  
  
  ***************************
  Time-Step Critical Elements
  ***************************
  Link Cout (87.07%)
  Link C48 (8.16%)
  Link C33 (1.36%)
  
  
  ********************************
  Highest Flow Instability Indexes
  ********************************
  Link C21 (8)
  Link C49 (7)
  Link C19 (6)
  Link C43 (5)
  Link C46 (5)
  
  
  *********************************
  Most Frequent Nonconverging Nodes
  *********************************
  Node OF (6.12%)
  Node J13 (4.76%)
  Node J6 (2.72%)
  Node J33 (2.04%)
  Node J32 (2.04%)
  
  
  *************************
  Routing Time Step Summary
  *************************
  Minimum Time Step           :     6.42 sec
  Average Time Step           :    20.40 sec
  Maximum Time Step           :   300.00 sec
  % of Time in Steady State   :     0.00
  Average Iterations per Step :     2.86
  % of Steps Not Converging   :     6.12
  Time Step Frequencies       :
     300.000 - 83.462 sec      :     3.42 %
     83.462 - 23.220 sec      :     8.90 %
     23.220 -  6.460 sec      :    86.99 %
      6.460 -  1.797 sec      :     0.68 %
      1.797 -  0.500 sec      :     0.00 %
  
  
  ***************************
  Subcatchment Runoff Summary
  ***************************
  
  ------------------------------------------------------------------------------------------------------------------------------
                            Total      Total      Total      Total     Imperv       Perv      Total       Total     Peak  Runoff
                           Precip      Runon       Evap      Infil     Runoff     Runoff     Runoff      Runoff   Runoff   Coeff
  Subcatchment                 mm         mm         mm         mm         mm         mm         mm    10^6 ltr      CMS
  ------------------------------------------------------------------------------------------------------------------------------
  S1                       507.47       0.00       0.00       0.00       5.02     502.45     507.47      128.01   133.50   1.000
  S2                       507.47       0.00       0.00       0.00       4.62     497.85     502.47        3.90     4.11   0.990
  S3                       507.47       0.00       0.00       0.00       4.62     502.85     507.47        1.05     1.10   1.000
  S4                       507.47       0.00       0.00       0.00       4.62     502.85     507.47        1.04     1.08   1.000
  S5                       507.47       0.00       0.00       0.00       4.62     502.85     507.47        1.52     1.58   1.000
  S6                       507.47       0.00       0.00       0.00       4.62     502.85     507.47        4.18     4.36   1.000
  S7                       507.47       0.00       0.00       0.00       4.62     502.85     507.47        0.79     0.82   1.000
  S8                       507.47       0.00       0.00       0.00       4.62     502.85     507.47        2.47     2.58   1.000
  S9                       507.47       0.00       0.00       0.00       4.62     502.85     507.47        3.05     3.19   1.000
  S10                      507.47       0.00       0.00       0.00       0.00     502.85     502.85        0.71     0.74   0.991
  S11                      507.47       0.00       0.00       0.00       4.62     445.75     450.37        6.59     7.62   0.887
  S12                      507.47       0.00       0.00       0.00       4.62     502.85     507.47        4.40     4.59   1.000
  S13                      507.47       0.00       0.00       0.00       0.00     502.85     502.85        4.24     4.43   0.991
  S14                      507.47       0.00       0.00       0.00       4.26     503.21     507.47        4.08     4.25   1.000
  S15                      507.47       0.00       0.00       0.00       4.26     503.21     507.47        3.81     3.97   1.000
  S16                      507.47       0.00       0.00       0.00       3.91     486.84     490.75        8.67     9.34   0.967
  S17                      507.47       0.00       0.00       0.00       3.91     376.72     380.63       12.96    16.42   0.750
  S18                      507.47       0.00       0.00       0.00       3.91     503.28     507.19        0.65     0.68   0.999
  S19                      507.47       0.00       0.00       0.00       3.91       0.00       3.91        0.01     0.01   0.008
  S20                      507.47       0.00       0.00       0.00       3.91     503.36     507.26        0.52     0.54   1.000
  S21                      507.47       0.00       0.00       0.00       3.91     468.73     472.64        7.84     8.73   0.931
  S22                      507.47       0.00       0.00       0.00       3.91     503.54     507.45        0.17     0.17   1.000
  S23                      507.47       0.00       0.00       0.00       3.91     503.56     507.47        0.20     0.21   1.000
  S24                      507.47       0.00       0.00       0.00       3.91     503.56     507.47        0.25     0.26   1.000
  S25                      507.47       0.00       0.00       0.00       3.91     503.56     507.47        0.30     0.31   1.000
  S26                      507.47       0.00       0.00       0.00       3.91     503.56     507.47        0.35     0.37   1.000
  S27                      507.47       0.00       0.00       0.00       3.91     501.69     505.60        4.20     4.40   0.996
  S28                      507.47       0.00       0.00       0.00       3.91     471.90     475.81        4.23     4.68   0.938
  S29                      507.47       0.00       0.00       0.00       3.91     503.42     507.33        0.47     0.49   1.000
  S30                      507.47       0.00       0.00       0.00       3.91     346.56     350.47       22.32    29.21   0.691
  S31                      507.47       0.00       0.00       0.00       4.06     503.41     507.47        6.88     7.17   1.000
  S32                      507.47       0.00       0.00       0.00       4.06     503.41     507.47        2.12     2.21   1.000
  S33                      507.47       0.00       0.00       0.00       4.77     502.70     507.47        1.58     1.65   1.000
  S34                      507.47       0.00       0.00       0.00       4.77     502.70     507.47        1.67     1.74   1.000
  S35                      507.47       0.00       0.00       0.00       4.62     502.85     507.47        2.04     2.13   1.000
  S36                      507.47       0.00       0.00       0.00       4.62     502.85     507.47        0.84     0.87   1.000
  S37                      507.47       0.00       0.00       0.00       4.62     502.85     507.47        1.83     1.91   1.000
  S38                      507.47       0.00       0.00       0.00       4.62     502.85     507.47        0.08     0.08   1.000
  S39                      507.47       0.00       0.00       0.00       4.62     502.85     507.47        2.08     2.17   1.000
  S40                      507.47       0.00       0.00       0.00       4.62     502.85     507.47        0.72     0.75   1.000
  S41                      507.47       0.00       0.00       0.00       4.62     502.85     507.47        1.15     1.20   1.000
  S42                      507.47       0.00       0.00       0.00       4.62     502.85     507.47        1.60     1.67   1.000
  S43                      507.47       0.00       0.00       0.00       4.62     502.85     507.47        3.65     3.81   1.000
  S44                      507.47       0.00       0.00       0.00       4.62     502.85     507.47        2.65     2.76   1.000
  S45                      507.47       0.00       0.00       0.00       4.62     502.85     507.47        0.27     0.28   1.000
  S46                      507.47       0.00       0.00       0.00       4.62     502.85     507.47        2.46     2.56   1.000
  S47                      507.47       0.00       0.00       0.00       4.62     502.85     507.47        4.96     5.18   1.000
  S48                      507.47       0.00       0.00       0.00       4.62     502.85     507.47        5.73     5.98   1.000
  S49                      507.47       0.00       0.00       0.00       4.62     502.85     507.47        3.49     3.64   1.000
  S50                      507.47       0.00       0.00       0.00       4.62     502.85     507.47        2.87     3.00   1.000
  S51                      507.47       0.00       0.00       0.00       4.62     502.85     507.47        1.69     1.77   1.000
  S52                      507.47       0.00       0.00       0.00       4.62     502.85     507.47        4.49     4.68   1.000
  S53                      507.47       0.00       0.00       0.00       4.62     472.52     477.13        5.81     6.42   0.940
  S54                      507.47       0.00       0.00       0.00       4.62     495.68     500.30        2.29     2.42   0.986
  S55                      507.47       0.00       0.00       0.00       4.62     502.85     507.47        0.19     0.20   1.000
  S56                      507.47       0.00       0.00       0.00       4.62     502.82     507.44        0.19     0.20   1.000
  S57                      507.47       0.00       0.00       0.00       4.62     502.85     507.47        2.62     2.74   1.000
  S58                      507.47       0.00       0.00       0.00       4.62     502.85     507.47        3.37     3.51   1.000
  S59                      507.47       0.00       0.00       0.00       4.62     502.85     507.47        3.27     3.41   1.000
  S60                      507.47       0.00       0.00       0.00       3.91     499.53     503.44        1.98     2.08   0.992
  S61                      507.47       0.00       0.00       0.00       3.91       0.00       3.91        0.01     0.01   0.008
  S62                      507.47       0.00       0.00       0.00       3.91     326.36     330.26       17.70    23.63   0.651
  S63                      507.47       0.00       0.00       0.00       3.91     503.56     507.47        4.77     4.97   1.000
  S64                      507.47       0.00       0.00       0.00       3.91     503.56     507.47       12.92    13.47   1.000
  S65                      507.47       0.00       0.00       0.00       3.91     503.56     507.47        2.06     2.15   1.000
  S66                      507.47       0.00       0.00       0.00       3.91     503.56     507.47        3.32     3.47   1.000
  S67                      507.47       0.00       0.00       0.00       3.91     503.56     507.47        6.21     6.48   1.000
  S68                      507.47       0.00       0.00       0.00       3.91     503.56     507.47        7.28     7.59   1.000
  S69                      507.47       0.00       0.00       0.00       3.91       0.00       3.91        0.10     0.10   0.008
  S70                      507.47       0.00       0.00       0.00       3.91     467.28     471.18       12.33    13.78   0.928
  S71                      507.47       0.00       0.00       0.00       4.62     502.85     507.47        7.46     7.78   1.000
  S72                      507.47       0.00       0.00       0.00       3.91     489.54     493.44        2.45     2.62   0.972
  S73                      507.47       0.00       0.00       0.00       3.91     503.56     507.47       10.64    11.09   1.000
  S74                      507.47       0.00       0.00       0.00       3.91       0.00       3.91        0.03     0.03   0.008
  S75                      507.47       0.00       0.00       0.00       3.91     503.56     507.47        0.34     0.35   1.000
  S76                      507.47       0.00       0.00       0.00       3.91     503.56     507.47        6.70     6.99   1.000
  S77                      507.47       0.00       0.00       0.00       3.91     503.56     507.47        5.42     5.66   1.000
  S78                      507.47       0.00       0.00       0.00       3.91     503.56     507.47        3.93     4.10   1.000
  S79                      507.47       0.00       0.00       0.00       4.62     502.85     507.47        3.45     3.59   1.000
  S80                      507.47       0.00       0.00       0.00       3.91     501.84     505.75        1.40     1.46   0.997
  S81                      507.47       0.00       0.00       0.00       3.91     503.56     507.47        5.74     5.99   1.000
  S82                      507.47       0.00       0.00       0.00       3.91     503.56     507.47        5.60     5.84   1.000
  S83                      507.47       0.00       0.00       0.00       3.91     503.56     507.47        3.60     3.76   1.000
  S84                      507.47       0.00       0.00       0.00       4.62     502.85     507.47        2.35     2.46   1.000
  S85                      507.47       0.00       0.00       0.00       4.62     479.26     483.88        5.98     6.53   0.954
  S86                      507.47       0.00       0.00       0.00       0.00     502.85     502.85        5.82     6.07   0.991
  S87                      507.47       0.00       0.00       0.00       4.62     502.85     507.47        6.30     6.57   1.000
  S88                      507.47       0.00       0.00       0.00       4.62     502.85     507.47        1.14     1.19   1.000
  S89                      507.47       0.00       0.00       0.00       4.62     502.85     507.47        5.13     5.35   1.000
  S90                      507.47       0.00       0.00       0.00       0.00     502.85     502.85        2.47     2.57   0.991
  S91                      507.47       0.00       0.00       0.00       4.62     502.85     507.47        0.84     0.87   1.000
  
  
  ******************
  Node Depth Summary
  ******************
  
  ---------------------------------------------------------------------------------
                                 Average  Maximum  Maximum  Time of Max    Reported
                                   Depth    Depth      HGL   Occurrence   Max Depth
  Node                 Type       Meters   Meters   Meters  days hr:min      Meters
  ---------------------------------------------------------------------------------
  J7                   JUNCTION     2.06     2.50     2.50     0  00:23        2.50
  J13                  JUNCTION     2.07     2.50     2.50     0  00:24        2.50
  J19                  JUNCTION     2.27     2.50     2.50     0  00:21        2.50
  J25                  JUNCTION     1.98     2.50     2.50     0  00:24        2.50
  J1                   JUNCTION     2.04     2.50     2.50     0  00:24        2.50
  J2                   JUNCTION     2.03     2.50     2.50     0  00:24        2.50
  J3                   JUNCTION     2.03     2.50     2.50     0  00:24        2.50
  J4                   JUNCTION     2.04     2.50     2.50     0  00:24        2.50
  J5                   JUNCTION     2.04     2.50     2.50     0  00:24        2.50
  J6                   JUNCTION     2.10     2.50     2.50     0  00:24        2.50
  J8                   JUNCTION     2.04     2.50     2.50     0  00:24        2.50
  J9                   JUNCTION     2.02     2.50     2.50     0  00:24        2.50
  J10                  JUNCTION     2.02     2.50     2.50     0  00:24        2.50
  J11                  JUNCTION     2.02     2.50     2.50     0  00:24        2.50
  J12                  JUNCTION     2.03     2.50     2.50     0  00:24        2.50
  J14                  JUNCTION     2.04     2.50     2.50     0  00:24        2.50
  J15                  JUNCTION     2.02     2.50     2.50     0  00:24        2.50
  J16                  JUNCTION     2.00     2.50     2.50     0  00:24        2.50
  J17                  JUNCTION     1.98     2.50     2.50     0  00:24        2.50
  J18                  JUNCTION     1.97     2.50     2.50     0  00:24        2.50
  J20                  JUNCTION     2.05     2.50     2.50     0  00:24        2.50
  J21                  JUNCTION     2.03     2.50     2.50     0  00:24        2.50
  J22                  JUNCTION     2.01     2.50     2.50     0  00:24        2.50
  J23                  JUNCTION     1.99     2.50     2.50     0  00:24        2.50
  J24                  JUNCTION     2.01     2.50     2.50     0  00:24        2.50
  J26                  JUNCTION     2.04     2.50     2.50     0  00:24        2.50
  J27                  JUNCTION     2.03     2.50     2.50     0  00:24        2.50
  J29                  JUNCTION     2.03     2.50     2.50     0  00:24        2.50
  J30                  JUNCTION     2.01     2.50     2.50     0  00:24        2.50
  J31                  JUNCTION     2.02     2.50     2.50     0  00:24        2.50
  J33                  JUNCTION     2.06     2.50     2.50     0  00:24        2.50
  J32                  JUNCTION     2.04     2.50     2.50     0  00:24        2.50
  J28                  JUNCTION     2.03     2.50     2.50     0  00:24        2.50
  OF                   OUTFALL      1.26     1.37     1.37     0  00:49        1.37
  
  
  *******************
  Node Inflow Summary
  *******************
  
  -------------------------------------------------------------------------------------------------
                                  Maximum  Maximum                  Lateral       Total        Flow
                                  Lateral    Total  Time of Max      Inflow      Inflow     Balance
                                   Inflow   Inflow   Occurrence      Volume      Volume       Error
  Node                 Type           CMS      CMS  days hr:min    10^6 ltr    10^6 ltr     Percent
  -------------------------------------------------------------------------------------------------
  J7                   JUNCTION    32.212   32.431     0  00:49        20.2        21.3       2.822
  J13                  JUNCTION     3.017    3.426     0  00:23        2.32        3.38      13.974
  J19                  JUNCTION   143.063  143.063     0  00:49         113         113       1.143
  J25                  JUNCTION    16.340   16.589     0  00:49        10.3        11.8       5.482
  J1                   JUNCTION    12.011   12.186     0  00:45         9.5         9.9       5.661
  J2                   JUNCTION     9.023    9.266     0  00:45        7.14        7.92       5.673
  J3                   JUNCTION     0.402    2.206     0  00:24       0.318        1.54      23.299
  J4                   JUNCTION    26.128   26.308     0  00:45        20.7          21       3.955
  J5                   JUNCTION    21.603   21.893     0  00:45        17.1        18.8       7.073
  J6                   JUNCTION     9.452    9.870     0  00:23        7.46        11.2       9.890
  J8                   JUNCTION    14.543   14.680     0  00:45        11.5        11.8       5.911
  J9                   JUNCTION     6.525    6.959     0  00:49         4.9        6.81      11.295
  J10                  JUNCTION     9.759   10.336     0  00:45        7.72        10.1       8.306
  J11                  JUNCTION    10.484   10.780     0  00:45        8.29        9.93       8.331
  J12                  JUNCTION    11.093   11.398     0  00:45        8.77        10.7       6.772
  J14                  JUNCTION     9.399    9.676     0  00:45        7.43        8.67       7.832
  J15                  JUNCTION    13.424   13.910     0  00:49        10.3        12.1       7.039
  J16                  JUNCTION     7.785    8.640     0  00:24        6.16        9.25       8.628
  J17                  JUNCTION     0.101    7.365     0  00:24      0.0801        3.55      22.347
  J18                  JUNCTION     0.355    5.713     0  00:24        0.28        2.83      21.695
  J20                  JUNCTION    26.151   26.151     0  00:49          20          20       2.818
  J21                  JUNCTION     8.676    8.964     0  00:45        6.86        8.29       7.495
  J22                  JUNCTION    17.725   17.971     0  00:49        13.2        14.6       4.428
  J23                  JUNCTION     9.336    9.769     0  00:49        7.12        8.96       6.222
  J24                  JUNCTION     1.232    5.627     0  00:24       0.974         2.7      15.154
  J26                  JUNCTION     7.663    7.663     0  00:49        6.06        6.06       5.829
  J27                  JUNCTION     6.721    6.869     0  00:45        5.29        5.75       8.708
  J29                  JUNCTION    11.024   11.333     0  00:45        8.72         9.9       9.290
  J30                  JUNCTION     0.000    3.417     0  00:23           0        1.96      36.053
  J31                  JUNCTION    29.054   29.264     0  00:49        17.5        18.3       3.488
  J33                  JUNCTION    10.846   10.846     0  00:49        8.55        8.55       2.796
  J32                  JUNCTION     4.948    5.235     0  00:45        3.91        5.35      11.866
  J28                  JUNCTION     7.912    8.240     0  00:45        6.26        7.19       5.790
  OF                   OUTFALL      0.000    7.351     0  00:49           0        13.8       0.000
  
  
  **********************
  Node Surcharge Summary
  **********************
  
  Surcharging occurs when water rises above the top of the highest conduit.
  ---------------------------------------------------------------------
                                               Max. Height   Min. Depth
                                   Hours       Above Crown    Below Rim
  Node                 Type      Surcharged         Meters       Meters
  ---------------------------------------------------------------------
  J7                   JUNCTION        0.44          0.850        0.000
  J13                  JUNCTION        0.44          0.850        0.000
  J19                  JUNCTION        0.49          0.850        0.000
  J25                  JUNCTION        0.43          0.850        0.000
  J1                   JUNCTION        0.43          0.850        0.000
  J2                   JUNCTION        0.43          0.850        0.000
  J3                   JUNCTION        0.43          0.850        0.000
  J4                   JUNCTION        0.43          0.850        0.000
  J5                   JUNCTION        0.43          0.850        0.000
  J6                   JUNCTION        0.43          0.850        0.000
  J8                   JUNCTION        0.43          0.850        0.000
  J9                   JUNCTION        0.43          0.850        0.000
  J10                  JUNCTION        0.43          0.850        0.000
  J11                  JUNCTION        0.43          0.850        0.000
  J12                  JUNCTION        0.43          0.850        0.000
  J14                  JUNCTION        0.43          0.850        0.000
  J15                  JUNCTION        0.43          0.850        0.000
  J16                  JUNCTION        0.43          0.850        0.000
  J17                  JUNCTION        0.43          0.850        0.000
  J18                  JUNCTION        0.43          0.850        0.000
  J20                  JUNCTION        0.43          0.850        0.000
  J21                  JUNCTION        0.43          0.850        0.000
  J22                  JUNCTION        0.43          0.850        0.000
  J23                  JUNCTION        0.43          0.850        0.000
  J24                  JUNCTION        0.43          0.850        0.000
  J26                  JUNCTION        0.43          0.850        0.000
  J27                  JUNCTION        0.43          0.850        0.000
  J29                  JUNCTION        0.43          0.850        0.000
  J30                  JUNCTION        0.43          0.850        0.000
  J31                  JUNCTION        0.43          0.850        0.000
  J33                  JUNCTION        0.43          0.850        0.000
  J32                  JUNCTION        0.43          0.850        0.000
  J28                  JUNCTION        0.43          0.850        0.000
  
  
  *********************
  Node Flooding Summary
  *********************
  
  Flooding refers to all water that overflows a node, whether it ponds or not.
  --------------------------------------------------------------------------
                                                             Total   Maximum
                                 Maximum   Time of Max       Flood    Ponded
                        Hours       Rate    Occurrence      Volume     Depth
  Node                 Flooded       CMS   days hr:min    10^6 ltr    Meters
  --------------------------------------------------------------------------
  J7                      0.44    32.016      0  00:49      19.191     0.000
  J13                     0.42     2.977      0  00:49       1.929     0.000
  J19                     0.48   135.453      0  00:49      95.034     0.000
  J25                     0.43    16.081      0  00:49       9.840     0.000
  J1                      0.43    11.835      0  00:49       8.354     0.000
  J2                      0.43     8.876      0  00:49       6.336     0.000
  J3                      0.43     2.041      0  00:24       1.075     0.000
  J4                      0.43    25.815      0  00:49      17.680     0.000
  J5                      0.43    21.034      0  00:49      14.248     0.000
  J6                      0.42     9.033      0  00:49       5.567     0.000
  J8                      0.43    14.450      0  00:49      10.300     0.000
  J9                      0.43     6.606      0  00:49       4.994     0.000
  J10                     0.43    10.056      0  00:45       8.305     0.000
  J11                     0.43    10.484      0  00:49       7.745     0.000
  J12                     0.42    11.114      0  00:45       8.428     0.000
  J14                     0.43     9.396      0  00:49       6.916     0.000
  J15                     0.43    13.656      0  00:49      10.032     0.000
  J16                     0.43     8.293      0  00:45       7.244     0.000
  J17                     0.43     6.991      0  00:24       2.580     0.000
  J18                     0.43     5.243      0  00:24       2.321     0.000
  J20                     0.43    25.660      0  00:49      16.978     0.000
  J21                     0.43     8.528      0  00:49       5.958     0.000
  J22                     0.43    17.511      0  00:49      12.095     0.000
  J23                     0.43     9.556      0  00:49       7.665     0.000
  J24                     0.43     1.771      0  00:24       0.924     0.000
  J26                     0.43     7.508      0  00:49       5.305     0.000
  J27                     0.43     6.807      0  00:45       5.192     0.000
  J29                     0.43    11.134      0  00:45       8.573     0.000
  J30                     0.43     1.965      0  00:24       1.441     0.000
  J31                     0.43    28.932      0  00:49      17.460     0.000
  J33                     0.43    10.608      0  00:49       7.026     0.000
  J32                     0.43     4.978      0  00:45       3.930     0.000
  J28                     0.43     7.981      0  00:45       5.921     0.000
  
  
  ***********************
  Outfall Loading Summary
  ***********************
  
  -----------------------------------------------------------
                         Flow       Avg       Max       Total
                         Freq      Flow      Flow      Volume
  Outfall Node           Pcnt       CMS       CMS    10^6 ltr
  -----------------------------------------------------------
  OF                   100.00     6.582     7.351      13.825
  -----------------------------------------------------------
  System               100.00     6.582     7.351      13.825
  
  
  ********************
  Link Flow Summary
  ********************
  
  -----------------------------------------------------------------------------
                                 Maximum  Time of Max   Maximum    Max/    Max/
                                  |Flow|   Occurrence   |Veloc|    Full    Full
  Link                 Type          CMS  days hr:min     m/sec    Flow   Depth
  -----------------------------------------------------------------------------
  P1                   PUMP        0.000     0  00:00                          
  C23                  CONDUIT     0.201     0  00:24      0.25    1.75    1.00
  C24                  CONDUIT     1.938     0  00:24      0.91   16.79    1.00
  C25                  CONDUIT     2.113     0  00:24      0.99   16.88    1.00
  C26                  CONDUIT     0.495     0  00:24      0.39    3.87    1.00
  C27                  CONDUIT     1.691     0  00:24      0.89   13.91    1.00
  C28                  CONDUIT     1.436     0  00:24      0.70    9.90    1.00
  C29                  CONDUIT     1.001     0  00:24      0.54    7.05    1.00
  C30                  CONDUIT     3.196     0  00:24      1.49   28.08    1.00
  C31                  CONDUIT     3.196     0  00:24      1.49   27.97    1.00
  C32                  CONDUIT     0.221     0  00:22      0.34    1.43    1.00
  C33                  CONDUIT     2.084     0  00:24      0.97   12.19    1.00
  C34                  CONDUIT     0.303     0  00:24      0.48    2.41    1.00
  C35                  CONDUIT     3.637     0  00:24      1.72   38.67    1.00
  C36                  CONDUIT     4.624     0  00:24      2.16   43.63    1.00
  C37                  CONDUIT     1.048     0  00:24      0.51    7.19    1.00
  C38                  CONDUIT     0.666     0  00:23      0.46    4.64    1.00
  C39                  CONDUIT     0.242     0  00:23      0.15    1.53    1.00
  C40                  CONDUIT     0.387     0  00:24      0.21    2.76    1.00
  C41                  CONDUIT     0.578     0  00:24      0.33    4.49    1.00
  C43                  CONDUIT     2.890     0  00:24      1.36   22.04    1.00
  C44                  CONDUIT     1.230     0  00:23      0.73   10.50    1.00
  C45                  CONDUIT     2.162     0  00:24      1.12   18.55    1.00
  C46                  CONDUIT     0.764     0  00:23      0.47    6.33    1.00
  C48                  CONDUIT     7.732     0  00:23      3.73   61.05    1.00
  C42                  CONDUIT     1.066     0  00:23      0.70    8.45    1.00
  C50                  CONDUIT     1.286     0  00:24      0.63   12.42    1.00
  C49                  CONDUIT     0.327     0  00:23      0.19    2.86    1.00
  C01                  CONDUIT     2.747     0  00:24      1.30   22.55    1.00
  C02                  CONDUIT     3.674     0  00:24      1.72   29.07    1.00
  C03                  CONDUIT     2.844     0  00:24      1.40   22.72    1.00
  C04                  CONDUIT     0.724     0  00:24      0.47    5.69    1.00
  C05                  CONDUIT     4.996     0  00:24      2.34   39.84    1.00
  C06                  CONDUIT     2.048     0  00:24      1.11   17.98    1.00
  C07                  CONDUIT     1.048     0  00:24      0.55    9.19    1.00
  C08                  CONDUIT     2.204     0  00:24      1.04   18.03    1.00
  C09                  CONDUIT     1.156     0  00:24      0.62   10.12    1.00
  C10                  CONDUIT     3.686     0  00:24      1.72   29.39    1.00
  C11                  CONDUIT     0.234     0  00:24      0.15    2.05    1.00
  C12                  CONDUIT     1.289     0  00:24      0.76   11.11    1.00
  C13                  CONDUIT     1.793     0  00:24      0.84   15.61    1.00
  C14                  CONDUIT     3.083     0  00:24      1.54   24.50    1.00
  C15                  CONDUIT     0.637     0  00:24      0.38    5.06    1.00
  C16                  CONDUIT     5.309     0  00:24      2.54   46.60    1.00
  C17                  CONDUIT     3.258     0  00:24      1.63   28.76    1.00
  C18                  CONDUIT     0.293     0  00:24      0.14    2.60    1.00
  C19                  CONDUIT     2.826     0  00:23      1.34   22.45    1.00
  C20                  CONDUIT     3.555     0  00:24      1.80   31.65    1.00
  C21                  CONDUIT     2.826     0  00:23      1.42   26.70    1.00
  C22                  CONDUIT     2.141     0  00:24      1.07   16.90    1.00
  C47                  CONDUIT     1.087     0  00:24      0.64   11.17    1.00
  Cout                 CONDUIT     7.351     0  00:49      3.59   58.05    0.91
  
  
  ***************************
  Flow Classification Summary
  ***************************
  
  -------------------------------------------------------------------------------------
                      Adjusted    ---------- Fraction of Time in Flow Class ---------- 
                       /Actual         Up    Down  Sub   Sup   Up    Down  Norm  Inlet 
  Conduit               Length    Dry  Dry   Dry   Crit  Crit  Crit  Crit  Ltd   Ctrl  
  -------------------------------------------------------------------------------------
  C23                     1.00   0.00  0.00  0.00  1.00  0.00  0.00  0.00  0.02  0.00
  C24                     1.00   0.00  0.00  0.00  1.00  0.00  0.00  0.00  0.00  0.00
  C25                     1.00   0.00  0.00  0.00  1.00  0.00  0.00  0.00  0.01  0.00
  C26                     1.00   0.00  0.00  0.00  1.00  0.00  0.00  0.00  0.00  0.00
  C27                     1.00   0.00  0.00  0.00  1.00  0.00  0.00  0.00  0.00  0.00
  C28                     1.00   0.00  0.00  0.00  1.00  0.00  0.00  0.00  0.00  0.00
  C29                     1.00   0.00  0.00  0.00  1.00  0.00  0.00  0.00  0.00  0.00
  C30                     1.00   0.00  0.00  0.00  1.00  0.00  0.00  0.00  0.00  0.00
  C31                     1.00   0.00  0.00  0.00  1.00  0.00  0.00  0.00  0.00  0.00
  C32                     1.00   0.00  0.00  0.00  1.00  0.00  0.00  0.00  0.03  0.00
  C33                     1.00   0.00  0.00  0.00  1.00  0.00  0.00  0.00  0.00  0.00
  C34                     1.00   0.00  0.00  0.00  1.00  0.00  0.00  0.00  0.02  0.00
  C35                     1.00   0.00  0.00  0.00  1.00  0.00  0.00  0.00  0.00  0.00
  C36                     1.00   0.00  0.00  0.00  1.00  0.00  0.00  0.00  0.00  0.00
  C37                     1.00   0.00  0.00  0.00  1.00  0.00  0.00  0.00  0.00  0.00
  C38                     1.00   0.00  0.00  0.00  1.00  0.00  0.00  0.00  0.01  0.00
  C39                     1.00   0.00  0.00  0.00  1.00  0.00  0.00  0.00  0.01  0.00
  C40                     1.00   0.00  0.00  0.00  1.00  0.00  0.00  0.00  0.02  0.00
  C41                     1.00   0.00  0.00  0.00  1.00  0.00  0.00  0.00  0.03  0.00
  C43                     1.00   0.00  0.00  0.00  1.00  0.00  0.00  0.00  0.00  0.00
  C44                     1.00   0.00  0.00  0.00  1.00  0.00  0.00  0.00  0.01  0.00
  C45                     1.00   0.00  0.00  0.00  1.00  0.00  0.00  0.00  0.00  0.00
  C46                     1.00   0.00  0.00  0.00  1.00  0.00  0.00  0.00  0.00  0.00
  C48                     1.00   0.00  0.00  0.00  1.00  0.00  0.00  0.00  0.00  0.00
  C42                     1.00   0.00  0.00  0.00  1.00  0.00  0.00  0.00  0.01  0.00
  C50                     1.00   0.00  0.00  0.00  1.00  0.00  0.00  0.00  0.01  0.00
  C49                     1.00   0.00  0.00  0.00  1.00  0.00  0.00  0.00  0.01  0.00
  C01                     1.00   0.00  0.00  0.00  1.00  0.00  0.00  0.00  0.00  0.00
  C02                     1.00   0.00  0.00  0.00  1.00  0.00  0.00  0.00  0.00  0.00
  C03                     1.00   0.00  0.00  0.00  1.00  0.00  0.00  0.00  0.00  0.00
  C04                     1.00   0.00  0.00  0.00  1.00  0.00  0.00  0.00  0.01  0.00
  C05                     1.00   0.00  0.00  0.00  1.00  0.00  0.00  0.00  0.00  0.00
  C06                     1.00   0.00  0.00  0.00  1.00  0.00  0.00  0.00  0.00  0.00
  C07                     1.00   0.00  0.00  0.00  1.00  0.00  0.00  0.00  0.02  0.00
  C08                     1.00   0.00  0.00  0.00  1.00  0.00  0.00  0.00  0.00  0.00
  C09                     1.00   0.00  0.00  0.00  1.00  0.00  0.00  0.00  0.00  0.00
  C10                     1.00   0.00  0.00  0.00  1.00  0.00  0.00  0.00  0.00  0.00
  C11                     1.00   0.00  0.00  0.00  1.00  0.00  0.00  0.00  0.02  0.00
  C12                     1.00   0.00  0.00  0.00  1.00  0.00  0.00  0.00  0.00  0.00
  C13                     1.00   0.00  0.00  0.00  1.00  0.00  0.00  0.00  0.01  0.00
  C14                     1.00   0.00  0.00  0.00  1.00  0.00  0.00  0.00  0.00  0.00
  C15                     1.00   0.00  0.00  0.00  1.00  0.00  0.00  0.00  0.00  0.00
  C16                     1.00   0.00  0.00  0.00  1.00  0.00  0.00  0.00  0.00  0.00
  C17                     1.00   0.00  0.00  0.00  1.00  0.00  0.00  0.00  0.00  0.00
  C18                     1.00   0.00  0.00  0.00  1.00  0.00  0.00  0.00  0.00  0.00
  C19                     1.00   0.00  0.00  0.00  1.00  0.00  0.00  0.00  0.00  0.00
  C20                     1.00   0.00  0.00  0.00  1.00  0.00  0.00  0.00  0.00  0.00
  C21                     1.00   0.00  0.00  0.00  0.95  0.05  0.00  0.00  0.00  0.00
  C22                     1.00   0.00  0.00  0.00  1.00  0.00  0.00  0.00  0.00  0.00
  C47                     1.00   0.00  0.00  0.00  1.00  0.00  0.00  0.00  0.00  0.00
  Cout                    1.00   0.00  0.00  0.00  1.00  0.00  0.00  0.00  0.00  0.00
  
  
  *************************
  Conduit Surcharge Summary
  *************************
  
  ----------------------------------------------------------------------------
                                                           Hours        Hours 
                         --------- Hours Full --------   Above Full   Capacity
  Conduit                Both Ends  Upstream  Dnstream   Normal Flow   Limited
  ----------------------------------------------------------------------------
  C23                         0.43      0.43      0.43      0.41         0.01
  C24                         0.43      0.43      0.43      0.52         0.01
  C25                         0.43      0.43      0.43      0.44         0.01
  C26                         0.43      0.43      0.43      0.08         0.01
  C27                         0.43      0.43      0.43      0.56         0.01
  C28                         0.43      0.43      0.43      0.54         0.01
  C29                         0.43      0.43      0.43      0.53         0.01
  C30                         0.43      0.43      0.43      0.57         0.01
  C31                         0.43      0.43      0.43      0.54         0.01
  C32                         0.43      0.43      0.43      0.02         0.01
  C33                         0.43      0.43      0.43      0.57         0.01
  C34                         0.43      0.43      0.43      0.49         0.01
  C35                         0.43      0.43      0.43      0.57         0.01
  C36                         0.43      0.43      0.43      0.57         0.01
  C37                         0.43      0.43      0.43      0.52         0.01
  C38                         0.43      0.43      0.43      0.49         0.01
  C39                         0.43      0.43      0.43      0.02         0.01
  C40                         0.43      0.43      0.43      0.46         0.01
  C41                         0.43      0.43      0.43      0.04         0.01
  C43                         0.43      0.43      0.43      0.58         0.01
  C44                         0.43      0.43      0.43      0.14         0.01
  C45                         0.43      0.43      0.43      0.55         0.01
  C46                         0.43      0.43      0.43      0.46         0.01
  C48                         0.43      0.43      0.49      0.63         0.01
  C42                         0.43      0.43      0.43      0.53         0.01
  C50                         0.43      0.43      0.43      0.53         0.01
  C49                         0.43      0.43      0.43      0.03         0.01
  C01                         0.43      0.43      0.43      0.58         0.01
  C02                         0.43      0.43      0.43      0.54         0.01
  C03                         0.43      0.43      0.43      0.53         0.01
  C04                         0.43      0.43      0.43      0.49         0.01
  C05                         0.43      0.43      0.43      0.48         0.01
  C06                         0.43      0.43      0.43      0.58         0.01
  C07                         0.43      0.43      0.43      0.51         0.01
  C08                         0.43      0.43      0.43      0.55         0.01
  C09                         0.43      0.43      0.43      0.52         0.01
  C10                         0.43      0.43      0.43      0.52         0.01
  C11                         0.43      0.43      0.43      0.01         0.01
  C12                         0.43      0.43      0.43      0.50         0.01
  C13                         0.43      0.43      0.43      0.45         0.01
  C14                         0.43      0.43      0.43      0.52         0.01
  C15                         0.43      0.43      0.43      0.46         0.01
  C16                         0.43      0.43      0.44      0.53         0.01
  C17                         0.43      0.43      0.43      0.54         0.01
  C18                         0.43      0.43      0.43      0.46         0.01
  C19                         0.44      0.44      0.44      0.52         0.01
  C20                         0.43      0.43      0.43      0.55         0.01
  C21                         0.43      0.44      0.43      0.62         0.01
  C22                         0.43      0.43      0.43      0.11         0.01
  C47                         0.43      0.43      0.43      0.54         0.01
  Cout                        0.01      0.49      0.01      0.63         0.01
  
  
  ***************
  Pumping Summary
  ***************
  
  ---------------------------------------------------------------------------------------------------------
                                                  Min       Avg       Max     Total     Power    % Time Off
                        Percent   Number of      Flow      Flow      Flow    Volume     Usage    Pump Curve
  Pump                 Utilized   Start-Ups       CMS       CMS       CMS  10^6 ltr     Kw-hr    Low   High
  ---------------------------------------------------------------------------------------------------------
  P1                       0.00           0      0.00      0.00      0.00     0.000      0.00    0.0    0.0
  

  Analysis begun on:  Mon Nov 25 15:13:46 2024
  Analysis ended on:  Mon Nov 25 15:13:46 2024
  Total elapsed time: < 1 sec