
  EPA STORM WATER MANAGEMENT MODEL - VERSION 5.2 (Build 5.2.4)
  PYSWMM TOOLKIT API - VERSION v1.0 (2023-11-27)
  ------------------------------------------------------------

  WARNING 04: minimum elevation drop used for Conduit C23
  WARNING 04: minimum elevation drop used for Conduit C24
  WARNING 04: minimum elevation drop used for Conduit C25
  WARNING 04: minimum elevation drop used for Conduit C26
  WARNING 04: minimum elevation drop used for Conduit C27
  WARNING 04: minimum elevation drop used for Conduit C28
  WARNING 04: minimum elevation drop used for Conduit C29
  WARNING 04: minimum elevation drop used for Conduit C30
  WARNING 04: minimum elevation drop used for Conduit C31
  WARNING 04: minimum elevation drop used for Conduit C32
  WARNING 04: minimum elevation drop used for Conduit C33
  WARNING 04: minimum elevation drop used for Conduit C34
  WARNING 04: minimum elevation drop used for Conduit C35
  WARNING 04: minimum elevation drop used for Conduit C36
  WARNING 04: minimum elevation drop used for Conduit C37
  WARNING 04: minimum elevation drop used for Conduit C38
  WARNING 04: minimum elevation drop used for Conduit C39
  WARNING 04: minimum elevation drop used for Conduit C40
  WARNING 04: minimum elevation drop used for Conduit C41
  WARNING 04: minimum elevation drop used for Conduit C43
  WARNING 04: minimum elevation drop used for Conduit C44
  WARNING 04: minimum elevation drop used for Conduit C45
  WARNING 04: minimum elevation drop used for Conduit C46
  WARNING 04: minimum elevation drop used for Conduit C48
  WARNING 04: minimum elevation drop used for Conduit C42
  WARNING 04: minimum elevation drop used for Conduit C50
  WARNING 04: minimum elevation drop used for Conduit C49
  WARNING 04: minimum elevation drop used for Conduit C01
  WARNING 04: minimum elevation drop used for Conduit C02
  WARNING 04: minimum elevation drop used for Conduit C03
  WARNING 04: minimum elevation drop used for Conduit C04
  WARNING 04: minimum elevation drop used for Conduit C05
  WARNING 04: minimum elevation drop used for Conduit C06
  WARNING 04: minimum elevation drop used for Conduit C07
  WARNING 04: minimum elevation drop used for Conduit C08
  WARNING 04: minimum elevation drop used for Conduit C09
  WARNING 04: minimum elevation drop used for Conduit C10
  WARNING 04: minimum elevation drop used for Conduit C11
  WARNING 04: minimum elevation drop used for Conduit C12
  WARNING 04: minimum elevation drop used for Conduit C13
  WARNING 04: minimum elevation drop used for Conduit C14
  WARNING 04: minimum elevation drop used for Conduit C15
  WARNING 04: minimum elevation drop used for Conduit C16
  WARNING 04: minimum elevation drop used for Conduit C17
  WARNING 04: minimum elevation drop used for Conduit C18
  WARNING 04: minimum elevation drop used for Conduit C19
  WARNING 04: minimum elevation drop used for Conduit C20
  WARNING 04: minimum elevation drop used for Conduit C21
  WARNING 04: minimum elevation drop used for Conduit C22
  WARNING 04: minimum elevation drop used for Conduit C47
  WARNING 04: minimum elevation drop used for Conduit Cout
  
  ****************
  Analysis Options
  ****************
  Flow Units ............... CMS
  Process Models:
    Rainfall/Runoff ........ YES
    RDII ................... NO
    Snowmelt ............... NO
    Groundwater ............ NO
    Flow Routing ........... YES
    Ponding Allowed ........ NO
    Water Quality .......... NO
  Infiltration Method ...... HORTON
  Flow Routing Method ...... DYNWAVE
  Surcharge Method ......... EXTRAN
  Starting Date ............ 03/13/2023 12:00:00
  Ending Date .............. 03/13/2023 12:40:00
  Antecedent Dry Days ...... 0.0
  Report Time Step ......... 00:10:00
  Wet Time Step ............ 00:05:00
  Dry Time Step ............ 01:00:00
  Routing Time Step ........ 300.00 sec
  Variable Time Step ....... YES
  Maximum Trials ........... 8
  Number of Threads ........ 1
  Head Tolerance ........... 0.001524 m
  
  
  *********************
  Rainfall File Summary
  *********************
  Station    First        Last         Recording   Periods    Periods    Periods
  ID         Date         Date         Frequency  w/Precip    Missing    Malfunc.
  -------------------------------------------------------------------------------
  317        03/13/2023   03/13/2023      10 min         5          0          0

  
  
  **************************        Volume         Depth
  Runoff Quantity Continuity     hectare-m            mm
  **************************     ---------       -------
  Total Precipitation ......       130.805      1308.100
  Evaporation Loss .........         0.000         0.000
  Infiltration Loss ........         0.000         0.000
  Surface Runoff ...........       124.195      1241.998
  Final Storage ............         7.817        78.176
  Continuity Error (%) .....        -0.923
  
  
  **************************        Volume        Volume
  Flow Routing Continuity        hectare-m      10^6 ltr
  **************************     ---------     ---------
  Dry Weather Inflow .......         0.000         0.000
  Wet Weather Inflow .......       121.878      1218.792
  Groundwater Inflow .......         0.000         0.000
  RDII Inflow ..............         0.000         0.000
  External Inflow ..........         0.000         0.000
  External Outflow .........         1.664        16.642
  Flooding Loss ............       117.069      1170.698
  Evaporation Loss .........         0.000         0.000
  Exfiltration Loss ........         0.000         0.000
  Initial Stored Volume ....         0.046         0.463
  Final Stored Volume ......         1.883        18.831
  Continuity Error (%) .....         1.073
  
  
  *************************
  Highest Continuity Errors
  *************************
  Node J3 (14.43%)
  Node J30 (14.43%)
  Node J17 (11.13%)
  Node J18 (7.97%)
  Node J24 (7.96%)
  
  
  ***************************
  Time-Step Critical Elements
  ***************************
  Link Cout (98.69%)
  
  
  ********************************
  Highest Flow Instability Indexes
  ********************************
  Link C24 (2)
  Link C31 (2)
  Link C33 (2)
  Link C34 (2)
  Link C36 (2)
  
  
  *********************************
  Most Frequent Nonconverging Nodes
  *********************************
  Convergence obtained at all time steps.
  
  
  *************************
  Routing Time Step Summary
  *************************
  Minimum Time Step           :     4.91 sec
  Average Time Step           :    15.69 sec
  Maximum Time Step           :   300.00 sec
  % of Time in Steady State   :     0.00
  Average Iterations per Step :     2.03
  % of Steps Not Converging   :     0.00
  Time Step Frequencies       :
     300.000 - 83.462 sec      :     0.66 %
     83.462 - 23.220 sec      :     0.00 %
     23.220 -  6.460 sec      :    98.68 %
      6.460 -  1.797 sec      :     0.66 %
      1.797 -  0.500 sec      :     0.00 %
  
  
  ***************************
  Subcatchment Runoff Summary
  ***************************
  
  ------------------------------------------------------------------------------------------------------------------------------
                            Total      Total      Total      Total     Imperv       Perv      Total       Total     Peak  Runoff
                           Precip      Runon       Evap      Infil     Runoff     Runoff     Runoff      Runoff   Runoff   Coeff
  Subcatchment                 mm         mm         mm         mm         mm         mm         mm    10^6 ltr      CMS
  ------------------------------------------------------------------------------------------------------------------------------
  S1                      1308.10       0.00       0.00       0.00      12.95    1295.15    1308.10      329.98   197.58   1.000
  S2                      1308.10       0.00       0.00       0.00      11.90    1296.98    1308.88       10.17     6.09   1.001
  S3                      1308.10       0.00       0.00       0.00      11.90    1296.20    1308.10        2.71     1.62   1.000
  S4                      1308.10       0.00       0.00       0.00      11.90    1296.20    1308.10        2.68     1.61   1.000
  S5                      1308.10       0.00       0.00       0.00      11.90    1296.20    1308.10        3.91     2.34   1.000
  S6                      1308.10       0.00       0.00       0.00      11.90    1296.20    1308.10       10.78     6.45   1.000
  S7                      1308.10       0.00       0.00       0.00      11.90    1296.20    1308.10        2.03     1.21   1.000
  S8                      1308.10       0.00       0.00       0.00      11.90    1296.20    1308.10        6.37     3.81   1.000
  S9                      1308.10       0.00       0.00       0.00      11.90    1296.20    1308.10        7.87     4.72   1.000
  S10                     1308.10       0.00       0.00       0.00       0.00    1296.20    1296.20        1.83     1.09   0.991
  S11                     1308.10       0.00       0.00       0.00      11.90    1270.96    1282.86       18.77    11.45   0.981
  S12                     1308.10       0.00       0.00       0.00      11.90    1296.20    1308.10       11.35     6.80   1.000
  S13                     1308.10       0.00       0.00       0.00       0.00    1296.20    1296.20       10.94     6.55   0.991
  S14                     1308.10       0.00       0.00       0.00      10.99    1297.11    1308.10       10.50     6.29   1.000
  S15                     1308.10       0.00       0.00       0.00      10.99    1297.11    1308.10        9.81     5.87   1.000
  S16                     1308.10       0.00       0.00       0.00      10.07    1296.34    1306.41       23.07    13.83   0.999
  S17                     1308.10       0.00       0.00       0.00      10.07    1218.03    1228.10       41.82    26.52   0.939
  S18                     1308.10       0.00       0.00       0.00      10.07    1297.99    1308.06        1.69     1.01   1.000
  S19                     1308.10       0.00       0.00       0.00      10.07       0.00      10.07        0.02     0.01   0.008
  S20                     1308.10       0.00       0.00       0.00      10.07    1297.92    1307.99        1.33     0.80   1.000
  S21                     1308.10       0.00       0.00       0.00      10.07    1287.09    1297.17       21.51    12.98   0.992
  S22                     1308.10       0.00       0.00       0.00      10.07    1297.86    1307.94        0.43     0.26   1.000
  S23                     1308.10       0.00       0.00       0.00      10.07    1298.03    1308.10        0.51     0.31   1.000
  S24                     1308.10       0.00       0.00       0.00      10.07    1298.03    1308.10        0.64     0.38   1.000
  S25                     1308.10       0.00       0.00       0.00      10.07    1298.03    1308.10        0.77     0.46   1.000
  S26                     1308.10       0.00       0.00       0.00      10.07    1298.03    1308.10        0.90     0.54   1.000
  S27                     1308.10       0.00       0.00       0.00      10.07    1298.25    1308.32       10.87     6.51   1.000
  S28                     1308.10       0.00       0.00       0.00      10.07    1288.93    1299.01       11.54     6.95   0.993
  S29                     1308.10       0.00       0.00       0.00      10.07    1297.97    1308.04        1.20     0.72   1.000
  S30                     1308.10       0.00       0.00       0.00      10.07    1189.17    1199.24       76.39    49.37   0.917
  S31                     1308.10       0.00       0.00       0.00      10.46    1297.64    1308.10       17.72    10.61   1.000
  S32                     1308.10       0.00       0.00       0.00      10.46    1297.64    1308.10        5.45     3.27   1.000
  S33                     1308.10       0.00       0.00       0.00      12.30    1295.80    1308.10        4.07     2.44   1.000
  S34                     1308.10       0.00       0.00       0.00      12.30    1295.80    1308.10        4.30     2.58   1.000
  S35                     1308.10       0.00       0.00       0.00      11.90    1296.20    1308.10        5.26     3.15   1.000
  S36                     1308.10       0.00       0.00       0.00      11.90    1296.20    1308.10        2.16     1.29   1.000
  S37                     1308.10       0.00       0.00       0.00      11.90    1296.20    1308.10        4.71     2.82   1.000
  S38                     1308.10       0.00       0.00       0.00      11.90    1296.20    1308.10        0.21     0.13   1.000
  S39                     1308.10       0.00       0.00       0.00      11.90    1296.20    1308.10        5.36     3.21   1.000
  S40                     1308.10       0.00       0.00       0.00      11.90    1296.20    1308.10        1.84     1.10   1.000
  S41                     1308.10       0.00       0.00       0.00      11.90    1296.20    1308.10        2.97     1.78   1.000
  S42                     1308.10       0.00       0.00       0.00      11.90    1296.20    1308.10        4.13     2.48   1.000
  S43                     1308.10       0.00       0.00       0.00      11.90    1296.20    1308.10        9.42     5.64   1.000
  S44                     1308.10       0.00       0.00       0.00      11.90    1296.20    1308.10        6.83     4.09   1.000
  S45                     1308.10       0.00       0.00       0.00      11.90    1296.20    1308.10        0.69     0.42   1.000
  S46                     1308.10       0.00       0.00       0.00      11.90    1296.20    1308.10        6.33     3.79   1.000
  S47                     1308.10       0.00       0.00       0.00      11.90    1296.20    1308.10       12.79     7.66   1.000
  S48                     1308.10       0.00       0.00       0.00      11.90    1296.20    1308.10       14.78     8.85   1.000
  S49                     1308.10       0.00       0.00       0.00      11.90    1296.20    1308.10        8.99     5.38   1.000
  S50                     1308.10       0.00       0.00       0.00      11.90    1296.20    1308.10        7.40     4.43   1.000
  S51                     1308.10       0.00       0.00       0.00      11.90    1296.20    1308.10        4.37     2.62   1.000
  S52                     1308.10       0.00       0.00       0.00      11.90    1296.20    1308.10       11.58     6.93   1.000
  S53                     1308.10       0.00       0.00       0.00      11.90    1300.29    1312.19       15.98     9.54   1.003
  S54                     1308.10       0.00       0.00       0.00      11.90    1296.97    1308.87        5.98     3.58   1.001
  S55                     1308.10       0.00       0.00       0.00      11.90    1296.20    1308.10        0.50     0.30   1.000
  S56                     1308.10       0.00       0.00       0.00      11.90    1296.14    1308.04        0.50     0.30   1.000
  S57                     1308.10       0.00       0.00       0.00      11.90    1296.20    1308.10        6.76     4.05   1.000
  S58                     1308.10       0.00       0.00       0.00      11.90    1296.20    1308.10        8.69     5.20   1.000
  S59                     1308.10       0.00       0.00       0.00      11.90    1296.20    1308.10        8.44     5.05   1.000
  S60                     1308.10       0.00       0.00       0.00      10.07    1298.71    1308.78        5.14     3.08   1.001
  S61                     1308.10       0.00       0.00       0.00      10.07       0.00      10.07        0.03     0.02   0.008
  S62                     1308.10       0.00       0.00       0.00      10.07    1167.60    1177.68       63.11    41.32   0.900
  S63                     1308.10       0.00       0.00       0.00      10.07    1298.03    1308.10       12.30     7.36   1.000
  S64                     1308.10       0.00       0.00       0.00      10.07    1298.03    1308.10       33.29    19.93   1.000
  S65                     1308.10       0.00       0.00       0.00      10.07    1298.03    1308.10        5.31     3.18   1.000
  S66                     1308.10       0.00       0.00       0.00      10.07    1298.03    1308.10        8.57     5.13   1.000
  S67                     1308.10       0.00       0.00       0.00      10.07    1298.03    1308.10       16.01     9.59   1.000
  S68                     1308.10       0.00       0.00       0.00      10.07    1298.03    1308.10       18.77    11.24   1.000
  S69                     1308.10       0.00       0.00       0.00      10.07       0.00      10.07        0.25     0.15   0.008
  S70                     1308.10       0.00       0.00       0.00      10.07    1286.23    1296.30       33.92    20.49   0.991
  S71                     1308.10       0.00       0.00       0.00      11.90    1296.20    1308.10       19.24    11.52   1.000
  S72                     1308.10       0.00       0.00       0.00      10.07    1297.31    1307.39        6.48     3.88   0.999
  S73                     1308.10       0.00       0.00       0.00      10.07    1298.03    1308.10       27.42    16.42   1.000
  S74                     1308.10       0.00       0.00       0.00      10.07       0.00      10.07        0.07     0.04   0.008
  S75                     1308.10       0.00       0.00       0.00      10.07    1298.03    1308.10        0.88     0.52   1.000
  S76                     1308.10       0.00       0.00       0.00      10.07    1298.03    1308.10       17.28    10.35   1.000
  S77                     1308.10       0.00       0.00       0.00      10.07    1298.03    1308.10       13.98     8.37   1.000
  S78                     1308.10       0.00       0.00       0.00      10.07    1298.03    1308.10       10.14     6.07   1.000
  S79                     1308.10       0.00       0.00       0.00      11.90    1296.20    1308.10        8.88     5.32   1.000
  S80                     1308.10       0.00       0.00       0.00      10.07    1298.25    1308.32        3.61     2.16   1.000
  S81                     1308.10       0.00       0.00       0.00      10.07    1298.03    1308.10       14.79     8.86   1.000
  S82                     1308.10       0.00       0.00       0.00      10.07    1298.03    1308.10       14.44     8.65   1.000
  S83                     1308.10       0.00       0.00       0.00      10.07    1298.03    1308.10        9.29     5.56   1.000
  S84                     1308.10       0.00       0.00       0.00      11.90    1296.20    1308.10        6.07     3.63   1.000
  S85                     1308.10       0.00       0.00       0.00      11.90    1291.42    1303.32       16.11     9.68   0.996
  S86                     1308.10       0.00       0.00       0.00       0.00    1296.20    1296.20       15.00     8.98   0.991
  S87                     1308.10       0.00       0.00       0.00      11.90    1296.20    1308.10       16.25     9.73   1.000
  S88                     1308.10       0.00       0.00       0.00      11.90    1296.20    1308.10        2.93     1.75   1.000
  S89                     1308.10       0.00       0.00       0.00      11.90    1296.20    1308.10       13.22     7.92   1.000
  S90                     1308.10       0.00       0.00       0.00       0.00    1296.20    1296.20        6.36     3.81   0.991
  S91                     1308.10       0.00       0.00       0.00      11.90    1296.20    1308.10        2.16     1.29   1.000
  
  
  ******************
  Node Depth Summary
  ******************
  
  ---------------------------------------------------------------------------------
                                 Average  Maximum  Maximum  Time of Max    Reported
                                   Depth    Depth      HGL   Occurrence   Max Depth
  Node                 Type       Meters   Meters   Meters  days hr:min      Meters
  ---------------------------------------------------------------------------------
  J7                   JUNCTION     2.48     2.50     2.50     0  00:05        2.50
  J13                  JUNCTION     2.48     2.50     2.50     0  00:05        2.50
  J19                  JUNCTION     2.48     2.50     2.50     0  00:05        2.50
  J25                  JUNCTION     2.48     2.50     2.50     0  00:05        2.50
  J1                   JUNCTION     2.48     2.50     2.50     0  00:05        2.50
  J2                   JUNCTION     2.48     2.50     2.50     0  00:05        2.50
  J3                   JUNCTION     2.48     2.50     2.50     0  00:05        2.50
  J4                   JUNCTION     2.48     2.50     2.50     0  00:05        2.50
  J5                   JUNCTION     2.48     2.50     2.50     0  00:05        2.50
  J6                   JUNCTION     2.48     2.50     2.50     0  00:05        2.50
  J8                   JUNCTION     2.48     2.50     2.50     0  00:05        2.50
  J9                   JUNCTION     2.48     2.50     2.50     0  00:05        2.50
  J10                  JUNCTION     2.48     2.50     2.50     0  00:05        2.50
  J11                  JUNCTION     2.48     2.50     2.50     0  00:05        2.50
  J12                  JUNCTION     2.48     2.50     2.50     0  00:05        2.50
  J14                  JUNCTION     2.48     2.50     2.50     0  00:05        2.50
  J15                  JUNCTION     2.48     2.50     2.50     0  00:05        2.50
  J16                  JUNCTION     2.48     2.50     2.50     0  00:05        2.50
  J17                  JUNCTION     2.48     2.50     2.50     0  00:05        2.50
  J18                  JUNCTION     2.48     2.50     2.50     0  00:05        2.50
  J20                  JUNCTION     2.48     2.50     2.50     0  00:05        2.50
  J21                  JUNCTION     2.48     2.50     2.50     0  00:05        2.50
  J22                  JUNCTION     2.48     2.50     2.50     0  00:05        2.50
  J23                  JUNCTION     2.48     2.50     2.50     0  00:05        2.50
  J24                  JUNCTION     2.48     2.50     2.50     0  00:05        2.50
  J26                  JUNCTION     2.48     2.50     2.50     0  00:05        2.50
  J27                  JUNCTION     2.48     2.50     2.50     0  00:05        2.50
  J29                  JUNCTION     2.48     2.50     2.50     0  00:05        2.50
  J30                  JUNCTION     2.48     2.50     2.50     0  00:05        2.50
  J31                  JUNCTION     2.48     2.50     2.50     0  00:05        2.50
  J33                  JUNCTION     2.48     2.50     2.50     0  00:05        2.50
  J32                  JUNCTION     2.48     2.50     2.50     0  00:05        2.50
  J28                  JUNCTION     2.48     2.50     2.50     0  00:05        2.50
  OF                   OUTFALL      1.36     1.41     1.41     0  00:05        1.37
  
  
  *******************
  Node Inflow Summary
  *******************
  
  -------------------------------------------------------------------------------------------------
                                  Maximum  Maximum                  Lateral       Total        Flow
                                  Lateral    Total  Time of Max      Inflow      Inflow     Balance
                                   Inflow   Inflow   Occurrence      Volume      Volume       Error
  Node                 Type           CMS      CMS  days hr:min    10^6 ltr    10^6 ltr     Percent
  -------------------------------------------------------------------------------------------------
  J7                   JUNCTION    54.308   54.430     0  00:30          82        82.3       1.180
  J13                  JUNCTION     4.469    4.469     0  00:30        7.34        7.34       2.635
  J19                  JUNCTION   211.767  211.767     0  00:30         348         348       2.792
  J25                  JUNCTION    26.525   26.750     0  00:30        40.6        41.7       1.661
  J1                   JUNCTION    17.776   17.776     0  00:30        29.2        29.2       2.901
  J2                   JUNCTION    13.354   13.523     0  00:25        21.9        22.4       2.176
  J3                   JUNCTION     0.595   13.493     0  00:05       0.978        6.71      16.865
  J4                   JUNCTION    38.669   39.162     0  00:25        63.5        65.3       2.349
  J5                   JUNCTION    31.972   31.972     0  00:30        52.5        52.5       1.835
  J6                   JUNCTION    13.989   13.989     0  00:25          23          23       2.734
  J8                   JUNCTION    21.524   21.524     0  00:25        35.4        35.4       2.993
  J9                   JUNCTION     9.681    9.681     0  00:30        15.8        15.8       1.756
  J10                  JUNCTION    14.443   14.443     0  00:30        23.7        23.7       2.157
  J11                  JUNCTION    15.517   15.954     0  00:25        25.5        26.9       2.364
  J12                  JUNCTION    16.417   16.839     0  00:25          27        28.3       2.502
  J14                  JUNCTION    13.911   13.911     0  00:30        22.9        22.9       2.993
  J15                  JUNCTION    19.909   19.909     0  00:30        32.7        32.7       2.546
  J16                  JUNCTION    11.522   12.265     0  00:25        18.9        21.6       2.600
  J17                  JUNCTION     0.150    6.954     0  00:05       0.246         4.5      12.528
  J18                  JUNCTION     0.525    3.339     0  00:05       0.862        2.87       8.660
  J20                  JUNCTION    38.911   38.911     0  00:30        63.5        63.5       2.773
  J21                  JUNCTION    12.840   12.840     0  00:30        21.1        21.1       2.993
  J22                  JUNCTION    26.369   26.369     0  00:30          43          43       2.284
  J23                  JUNCTION    13.832   14.068     0  00:25        22.7        23.6       2.193
  J24                  JUNCTION     1.824    5.659     0  00:05           3        5.13       8.645
  J26                  JUNCTION    11.342   11.342     0  00:30        18.6        18.6       2.993
  J27                  JUNCTION     9.947   10.460     0  00:25        16.4        18.3       2.807
  J29                  JUNCTION    16.315   16.764     0  00:25        26.8        28.3       2.623
  J30                  JUNCTION     0.000    9.549     0  00:05           0        4.75      16.862
  J31                  JUNCTION    49.372   49.580     0  00:30        73.9        74.8       1.137
  J33                  JUNCTION    16.053   16.053     0  00:30        26.4        26.4       2.985
  J32                  JUNCTION     7.323    7.323     0  00:25          12          12       2.551
  J28                  JUNCTION    11.710   12.237     0  00:25        19.2        21.4       2.026
  OF                   OUTFALL      0.000    7.968     0  00:05           0        16.6       0.000
  
  
  **********************
  Node Surcharge Summary
  **********************
  
  Surcharging occurs when water rises above the top of the highest conduit.
  ---------------------------------------------------------------------
                                               Max. Height   Min. Depth
                                   Hours       Above Crown    Below Rim
  Node                 Type      Surcharged         Meters       Meters
  ---------------------------------------------------------------------
  J7                   JUNCTION        0.67          0.850        0.000
  J13                  JUNCTION        0.67          0.850        0.000
  J19                  JUNCTION        0.67          0.850        0.000
  J25                  JUNCTION        0.67          0.850        0.000
  J1                   JUNCTION        0.67          0.850        0.000
  J2                   JUNCTION        0.67          0.850        0.000
  J3                   JUNCTION        0.67          0.850        0.000
  J4                   JUNCTION        0.67          0.850        0.000
  J5                   JUNCTION        0.67          0.850        0.000
  J6                   JUNCTION        0.67          0.850        0.000
  J8                   JUNCTION        0.67          0.850        0.000
  J9                   JUNCTION        0.67          0.850        0.000
  J10                  JUNCTION        0.67          0.850        0.000
  J11                  JUNCTION        0.67          0.850        0.000
  J12                  JUNCTION        0.67          0.850        0.000
  J14                  JUNCTION        0.67          0.850        0.000
  J15                  JUNCTION        0.67          0.850        0.000
  J16                  JUNCTION        0.67          0.850        0.000
  J17                  JUNCTION        0.67          0.850        0.000
  J18                  JUNCTION        0.67          0.850        0.000
  J20                  JUNCTION        0.67          0.850        0.000
  J21                  JUNCTION        0.67          0.850        0.000
  J22                  JUNCTION        0.67          0.850        0.000
  J23                  JUNCTION        0.67          0.850        0.000
  J24                  JUNCTION        0.67          0.850        0.000
  J26                  JUNCTION        0.67          0.850        0.000
  J27                  JUNCTION        0.67          0.850        0.000
  J29                  JUNCTION        0.67          0.850        0.000
  J30                  JUNCTION        0.67          0.850        0.000
  J31                  JUNCTION        0.67          0.850        0.000
  J33                  JUNCTION        0.67          0.850        0.000
  J32                  JUNCTION        0.67          0.850        0.000
  J28                  JUNCTION        0.67          0.850        0.000
  
  
  *********************
  Node Flooding Summary
  *********************
  
  Flooding refers to all water that overflows a node, whether it ponds or not.
  --------------------------------------------------------------------------
                                                             Total   Maximum
                                 Maximum   Time of Max       Flood    Ponded
                        Hours       Rate    Occurrence      Volume     Depth
  Node                 Flooded       CMS   days hr:min    10^6 ltr    Meters
  --------------------------------------------------------------------------
  J7                      0.67    54.162      0  00:30      80.395     0.000
  J13                     0.67     4.346      0  00:30       6.989     0.000
  J19                     0.67   204.416      0  00:30     331.279     0.000
  J25                     0.67    26.502      0  00:30      40.998     0.000
  J1                      0.67    17.626      0  00:30      28.748     0.000
  J2                      0.67    13.070      0  00:30      20.410     0.000
  J3                      0.67    12.617      0  00:05       6.707     0.000
  J4                      0.67    38.637      0  00:30      62.213     0.000
  J5                      0.67    31.116      0  00:30      47.918     0.000
  J6                      0.67    13.792      0  00:30      22.234     0.000
  J8                      0.67    21.524      0  00:25      35.372     0.000
  J9                      0.67     9.446      0  00:30      14.543     0.000
  J10                     0.67    13.837      0  00:30      21.298     0.000
  J11                     0.67    15.485      0  00:30      24.876     0.000
  J12                     0.67    16.546      0  00:25      26.843     0.000
  J14                     0.67    13.911      0  00:30      22.861     0.000
  J15                     0.67    19.696      0  00:30      31.819     0.000
  J16                     0.67    11.964      0  00:25      19.974     0.000
  J17                     0.67     6.700      0  00:05       4.498     0.000
  J18                     0.67     3.074      0  00:05       2.598     0.000
  J20                     0.67    38.910      0  00:30      63.513     0.000
  J21                     0.67    12.840      0  00:30      21.101     0.000
  J22                     0.67    25.951      0  00:30      41.213     0.000
  J23                     0.67    13.603      0  00:30      21.535     0.000
  J24                     0.67     5.393      0  00:05       5.132     0.000
  J26                     0.67    11.342      0  00:30      18.639     0.000
  J27                     0.67    10.172      0  00:25      16.989     0.000
  J29                     0.67    16.276      0  00:30      26.412     0.000
  J30                     0.67     9.012      0  00:05       4.750     0.000
  J31                     0.67    49.322      0  00:30      73.262     0.000
  J33                     0.67    16.053      0  00:30      26.387     0.000
  J32                     0.67     7.132      0  00:30      11.320     0.000
  J28                     0.67    11.925      0  00:25      19.319     0.000
  
  
  ***********************
  Outfall Loading Summary
  ***********************
  
  -----------------------------------------------------------
                         Flow       Avg       Max       Total
                         Freq      Flow      Flow      Volume
  Outfall Node           Pcnt       CMS       CMS    10^6 ltr
  -----------------------------------------------------------
  OF                   100.00     7.312     7.968      16.642
  -----------------------------------------------------------
  System               100.00     7.312     7.968      16.642
  
  
  ********************
  Link Flow Summary
  ********************
  
  -----------------------------------------------------------------------------
                                 Maximum  Time of Max   Maximum    Max/    Max/
                                  |Flow|   Occurrence   |Veloc|    Full    Full
  Link                 Type          CMS  days hr:min     m/sec    Flow   Depth
  -----------------------------------------------------------------------------
  P1                   PUMP        0.000     0  00:00                          
  C23                  CONDUIT     0.000     0  00:00      0.00    0.00    1.00
  C24                  CONDUIT     0.963     0  00:05      0.45    8.34    1.00
  C25                  CONDUIT     0.000     0  00:00      0.00    0.00    1.00
  C26                  CONDUIT     0.722     0  00:05      0.34    5.65    1.00
  C27                  CONDUIT     0.000     0  00:00      0.00    0.00    1.00
  C28                  CONDUIT     2.030     0  00:05      0.95   13.99    1.00
  C29                  CONDUIT     0.345     0  00:05      0.16    2.43    1.00
  C30                  CONDUIT     0.913     0  00:05      0.43    8.02    1.00
  C31                  CONDUIT     0.589     0  00:05      0.28    5.15    1.00
  C32                  CONDUIT     4.854     0  00:05      2.27   31.37    1.00
  C33                  CONDUIT     6.114     0  00:05      2.86   35.77    1.00
  C34                  CONDUIT     1.042     0  00:05      0.49    8.29    1.00
  C35                  CONDUIT     0.000     0  00:05      0.00    0.00    1.00
  C36                  CONDUIT     0.764     0  00:05      0.36    7.21    1.00
  C37                  CONDUIT     0.921     0  00:05      0.43    6.33    1.00
  C38                  CONDUIT     1.653     0  00:05      0.77   11.52    1.00
  C39                  CONDUIT     2.139     0  00:05      1.00   13.55    1.00
  C40                  CONDUIT     0.000     0  00:00      0.00    0.00    1.00
  C41                  CONDUIT     0.000     0  00:00      0.00    0.00    1.00
  C43                  CONDUIT     0.000     0  00:00      0.00    0.00    1.00
  C44                  CONDUIT     0.721     0  00:05      0.34    6.15    1.00
  C45                  CONDUIT     5.452     0  00:05      2.55   46.78    1.00
  C46                  CONDUIT     2.742     0  00:05      1.28   22.72    1.00
  C48                  CONDUIT     0.000     0  00:05      0.00    0.00    1.00
  C42                  CONDUIT     1.354     0  00:05      0.63   10.74    1.00
  C50                  CONDUIT     0.691     0  00:05      0.32    6.68    1.00
  C49                  CONDUIT     0.853     0  00:05      0.40    7.45    1.00
  C01                  CONDUIT     0.000     0  00:00      0.00    0.00    1.00
  C02                  CONDUIT     0.000     0  00:00      0.00    0.00    1.00
  C03                  CONDUIT     1.016     0  00:05      0.48    8.12    1.00
  C04                  CONDUIT     1.565     0  00:05      0.73   12.31    1.00
  C05                  CONDUIT     0.106     0  00:05      0.05    0.85    1.00
  C06                  CONDUIT     0.000     0  00:00      0.00    0.00    1.00
  C07                  CONDUIT     0.000     0  00:00      0.00    0.00    1.00
  C08                  CONDUIT     0.000     0  00:00      0.00    0.00    1.00
  C09                  CONDUIT     0.948     0  00:05      0.44    8.30    1.00
  C10                  CONDUIT     1.092     0  00:05      0.51    8.71    1.00
  C11                  CONDUIT     0.000     0  00:00      0.00    0.00    1.00
  C12                  CONDUIT     1.075     0  00:05      0.50    9.26    1.00
  C13                  CONDUIT     0.456     0  00:05      0.21    3.97    1.00
  C14                  CONDUIT     3.080     0  00:05      1.44   24.47    1.00
  C15                  CONDUIT     0.165     0  00:05      0.08    1.31    1.00
  C16                  CONDUIT     4.370     0  00:05      2.04   38.36    1.00
  C17                  CONDUIT     2.536     0  00:05      1.19   22.39    1.00
  C18                  CONDUIT     0.000     0  00:00      0.00    0.00    1.00
  C19                  CONDUIT     0.228     0  00:05      0.11    1.81    1.00
  C20                  CONDUIT     2.543     0  00:05      1.19   22.64    1.00
  C21                  CONDUIT     0.000     0  00:05      0.00    0.00    1.00
  C22                  CONDUIT     0.458     0  00:05      0.21    3.62    1.00
  C47                  CONDUIT     0.984     0  00:05      0.46   10.11    1.00
  Cout                 CONDUIT     7.968     0  00:05      3.85   62.92    0.93
  
  
  ***************************
  Flow Classification Summary
  ***************************
  
  -------------------------------------------------------------------------------------
                      Adjusted    ---------- Fraction of Time in Flow Class ---------- 
                       /Actual         Up    Down  Sub   Sup   Up    Down  Norm  Inlet 
  Conduit               Length    Dry  Dry   Dry   Crit  Crit  Crit  Crit  Ltd   Ctrl  
  -------------------------------------------------------------------------------------
  C23                     1.00   0.00  0.00  0.00  1.00  0.00  0.00  0.00  0.00  0.00
  C24                     1.00   0.00  0.00  0.00  1.00  0.00  0.00  0.00  0.00  0.00
  C25                     1.00   0.00  0.00  0.00  1.00  0.00  0.00  0.00  0.00  0.00
  C26                     1.00   0.00  0.00  0.00  1.00  0.00  0.00  0.00  0.00  0.00
  C27                     1.00   0.00  0.00  0.00  1.00  0.00  0.00  0.00  0.00  0.00
  C28                     1.00   0.00  0.00  0.00  1.00  0.00  0.00  0.00  0.00  0.00
  C29                     1.00   0.00  0.00  0.00  1.00  0.00  0.00  0.00  0.00  0.00
  C30                     1.00   0.00  0.00  0.00  1.00  0.00  0.00  0.00  0.00  0.00
  C31                     1.00   0.00  0.00  0.00  1.00  0.00  0.00  0.00  0.00  0.00
  C32                     1.00   0.00  0.00  0.00  1.00  0.00  0.00  0.00  0.00  0.00
  C33                     1.00   0.00  0.00  0.00  1.00  0.00  0.00  0.00  0.00  0.00
  C34                     1.00   0.00  0.00  0.00  1.00  0.00  0.00  0.00  0.00  0.00
  C35                     1.00   0.00  0.00  0.00  1.00  0.00  0.00  0.00  0.00  0.00
  C36                     1.00   0.00  0.00  0.00  1.00  0.00  0.00  0.00  0.00  0.00
  C37                     1.00   0.00  0.00  0.00  1.00  0.00  0.00  0.00  0.00  0.00
  C38                     1.00   0.00  0.00  0.00  1.00  0.00  0.00  0.00  0.00  0.00
  C39                     1.00   0.00  0.00  0.00  1.00  0.00  0.00  0.00  0.00  0.00
  C40                     1.00   0.00  0.00  0.00  1.00  0.00  0.00  0.00  0.00  0.00
  C41                     1.00   0.00  0.00  0.00  1.00  0.00  0.00  0.00  0.00  0.00
  C43                     1.00   0.00  0.00  0.00  1.00  0.00  0.00  0.00  0.00  0.00
  C44                     1.00   0.00  0.00  0.00  1.00  0.00  0.00  0.00  0.00  0.00
  C45                     1.00   0.00  0.00  0.00  1.00  0.00  0.00  0.00  0.00  0.00
  C46                     1.00   0.00  0.00  0.00  1.00  0.00  0.00  0.00  0.00  0.00
  C48                     1.00   0.00  0.00  0.00  1.00  0.00  0.00  0.00  0.00  0.00
  C42                     1.00   0.00  0.00  0.00  1.00  0.00  0.00  0.00  0.00  0.00
  C50                     1.00   0.00  0.00  0.00  1.00  0.00  0.00  0.00  0.00  0.00
  C49                     1.00   0.00  0.00  0.00  1.00  0.00  0.00  0.00  0.00  0.00
  C01                     1.00   0.00  0.00  0.00  1.00  0.00  0.00  0.00  0.00  0.00
  C02                     1.00   0.00  0.00  0.00  1.00  0.00  0.00  0.00  0.00  0.00
  C03                     1.00   0.00  0.00  0.00  1.00  0.00  0.00  0.00  0.00  0.00
  C04                     1.00   0.00  0.00  0.00  1.00  0.00  0.00  0.00  0.00  0.00
  C05                     1.00   0.00  0.00  0.00  1.00  0.00  0.00  0.00  0.00  0.00
  C06                     1.00   0.00  0.00  0.00  1.00  0.00  0.00  0.00  0.00  0.00
  C07                     1.00   0.00  0.00  0.00  1.00  0.00  0.00  0.00  0.00  0.00
  C08                     1.00   0.00  0.00  0.00  1.00  0.00  0.00  0.00  0.00  0.00
  C09                     1.00   0.00  0.00  0.00  1.00  0.00  0.00  0.00  0.00  0.00
  C10                     1.00   0.00  0.00  0.00  1.00  0.00  0.00  0.00  0.00  0.00
  C11                     1.00   0.00  0.00  0.00  1.00  0.00  0.00  0.00  0.00  0.00
  C12                     1.00   0.00  0.00  0.00  1.00  0.00  0.00  0.00  0.00  0.00
  C13                     1.00   0.00  0.00  0.00  1.00  0.00  0.00  0.00  0.00  0.00
  C14                     1.00   0.00  0.00  0.00  1.00  0.00  0.00  0.00  0.00  0.00
  C15                     1.00   0.00  0.00  0.00  1.00  0.00  0.00  0.00  0.00  0.00
  C16                     1.00   0.00  0.00  0.00  1.00  0.00  0.00  0.00  0.00  0.00
  C17                     1.00   0.00  0.00  0.00  1.00  0.00  0.00  0.00  0.00  0.00
  C18                     1.00   0.00  0.00  0.00  1.00  0.00  0.00  0.00  0.00  0.00
  C19                     1.00   0.00  0.00  0.00  1.00  0.00  0.00  0.00  0.00  0.00
  C20                     1.00   0.00  0.00  0.00  1.00  0.00  0.00  0.00  0.00  0.00
  C21                     1.00   0.00  0.00  0.00  1.00  0.00  0.00  0.00  0.00  0.00
  C22                     1.00   0.00  0.00  0.00  1.00  0.00  0.00  0.00  0.00  0.00
  C47                     1.00   0.00  0.00  0.00  1.00  0.00  0.00  0.00  0.00  0.00
  Cout                    1.00   0.00  0.00  0.00  1.00  0.00  0.00  0.00  0.00  0.00
  
  
  *************************
  Conduit Surcharge Summary
  *************************
  
  ----------------------------------------------------------------------------
                                                           Hours        Hours 
                         --------- Hours Full --------   Above Full   Capacity
  Conduit                Both Ends  Upstream  Dnstream   Normal Flow   Limited
  ----------------------------------------------------------------------------
  C23                         0.67      0.67      0.67      0.01         0.01
  C24                         0.67      0.67      0.67      0.67         0.01
  C25                         0.67      0.67      0.67      0.01         0.01
  C26                         0.67      0.67      0.67      0.67         0.01
  C27                         0.67      0.67      0.67      0.01         0.01
  C28                         0.67      0.67      0.67      0.67         0.01
  C29                         0.67      0.67      0.67      0.54         0.01
  C30                         0.67      0.67      0.67      0.67         0.01
  C31                         0.67      0.67      0.67      0.67         0.01
  C32                         0.67      0.67      0.67      0.67         0.01
  C33                         0.67      0.67      0.67      0.67         0.01
  C34                         0.67      0.67      0.67      0.67         0.01
  C35                         0.67      0.67      0.67      0.01         0.01
  C36                         0.67      0.67      0.67      0.67         0.01
  C37                         0.67      0.67      0.67      0.67         0.01
  C38                         0.67      0.67      0.67      0.67         0.01
  C39                         0.67      0.67      0.67      0.67         0.01
  C40                         0.67      0.67      0.67      0.01         0.01
  C41                         0.67      0.67      0.67      0.01         0.01
  C43                         0.67      0.67      0.67      0.01         0.01
  C44                         0.67      0.67      0.67      0.67         0.01
  C45                         0.67      0.67      0.67      0.67         0.01
  C46                         0.67      0.67      0.67      0.67         0.01
  C48                         0.67      0.67      0.67      0.01         0.01
  C42                         0.67      0.67      0.67      0.67         0.01
  C50                         0.67      0.67      0.67      0.67         0.01
  C49                         0.67      0.67      0.67      0.67         0.01
  C01                         0.67      0.67      0.67      0.01         0.01
  C02                         0.67      0.67      0.67      0.01         0.01
  C03                         0.67      0.67      0.67      0.67         0.01
  C04                         0.67      0.67      0.67      0.67         0.01
  C05                         0.67      0.67      0.67      0.01         0.01
  C06                         0.67      0.67      0.67      0.01         0.01
  C07                         0.67      0.67      0.67      0.01         0.01
  C08                         0.67      0.67      0.67      0.01         0.01
  C09                         0.67      0.67      0.67      0.67         0.01
  C10                         0.67      0.67      0.67      0.67         0.01
  C11                         0.67      0.67      0.67      0.01         0.01
  C12                         0.67      0.67      0.67      0.67         0.01
  C13                         0.67      0.67      0.67      0.67         0.01
  C14                         0.67      0.67      0.67      0.67         0.01
  C15                         0.67      0.67      0.67      0.29         0.01
  C16                         0.67      0.67      0.67      0.67         0.01
  C17                         0.67      0.67      0.67      0.67         0.01
  C18                         0.67      0.67      0.67      0.01         0.01
  C19                         0.67      0.67      0.67      0.47         0.01
  C20                         0.67      0.67      0.67      0.67         0.01
  C21                         0.67      0.67      0.67      0.01         0.01
  C22                         0.67      0.67      0.67      0.67         0.01
  C47                         0.67      0.67      0.67      0.67         0.01
  Cout                        0.01      0.67      0.01      0.67         0.01
  
  
  ***************
  Pumping Summary
  ***************
  
  ---------------------------------------------------------------------------------------------------------
                                                  Min       Avg       Max     Total     Power    % Time Off
                        Percent   Number of      Flow      Flow      Flow    Volume     Usage    Pump Curve
  Pump                 Utilized   Start-Ups       CMS       CMS       CMS  10^6 ltr     Kw-hr    Low   High
  ---------------------------------------------------------------------------------------------------------
  P1                       0.00           0      0.00      0.00      0.00     0.000      0.00    0.0    0.0
  

  Analysis begun on:  Thu Nov 28 15:15:50 2024
  Analysis ended on:  Thu Nov 28 15:15:50 2024
  Total elapsed time: < 1 sec