
  EPA STORM WATER MANAGEMENT MODEL - VERSION 5.2 (Build 5.2.4)
  PYSWMM TOOLKIT API - VERSION v1.0 (2023-11-27)
  ------------------------------------------------------------

  WARNING 04: minimum elevation drop used for Conduit C23
  WARNING 04: minimum elevation drop used for Conduit C24
  WARNING 04: minimum elevation drop used for Conduit C25
  WARNING 04: minimum elevation drop used for Conduit C26
  WARNING 04: minimum elevation drop used for Conduit C27
  WARNING 04: minimum elevation drop used for Conduit C28
  WARNING 04: minimum elevation drop used for Conduit C29
  WARNING 04: minimum elevation drop used for Conduit C30
  WARNING 04: minimum elevation drop used for Conduit C31
  WARNING 04: minimum elevation drop used for Conduit C32
  WARNING 04: minimum elevation drop used for Conduit C33
  WARNING 04: minimum elevation drop used for Conduit C34
  WARNING 04: minimum elevation drop used for Conduit C35
  WARNING 04: minimum elevation drop used for Conduit C36
  WARNING 04: minimum elevation drop used for Conduit C37
  WARNING 04: minimum elevation drop used for Conduit C38
  WARNING 04: minimum elevation drop used for Conduit C39
  WARNING 04: minimum elevation drop used for Conduit C40
  WARNING 04: minimum elevation drop used for Conduit C41
  WARNING 04: minimum elevation drop used for Conduit C43
  WARNING 04: minimum elevation drop used for Conduit C44
  WARNING 04: minimum elevation drop used for Conduit C45
  WARNING 04: minimum elevation drop used for Conduit C46
  WARNING 04: minimum elevation drop used for Conduit C48
  WARNING 04: minimum elevation drop used for Conduit C42
  WARNING 04: minimum elevation drop used for Conduit C50
  WARNING 04: minimum elevation drop used for Conduit C49
  WARNING 04: minimum elevation drop used for Conduit C01
  WARNING 04: minimum elevation drop used for Conduit C02
  WARNING 04: minimum elevation drop used for Conduit C03
  WARNING 04: minimum elevation drop used for Conduit C04
  WARNING 04: minimum elevation drop used for Conduit C05
  WARNING 04: minimum elevation drop used for Conduit C06
  WARNING 04: minimum elevation drop used for Conduit C07
  WARNING 04: minimum elevation drop used for Conduit C08
  WARNING 04: minimum elevation drop used for Conduit C09
  WARNING 04: minimum elevation drop used for Conduit C10
  WARNING 04: minimum elevation drop used for Conduit C11
  WARNING 04: minimum elevation drop used for Conduit C12
  WARNING 04: minimum elevation drop used for Conduit C13
  WARNING 04: minimum elevation drop used for Conduit C14
  WARNING 04: minimum elevation drop used for Conduit C15
  WARNING 04: minimum elevation drop used for Conduit C16
  WARNING 04: minimum elevation drop used for Conduit C17
  WARNING 04: minimum elevation drop used for Conduit C18
  WARNING 04: minimum elevation drop used for Conduit C19
  WARNING 04: minimum elevation drop used for Conduit C20
  WARNING 04: minimum elevation drop used for Conduit C21
  WARNING 04: minimum elevation drop used for Conduit C22
  WARNING 04: minimum elevation drop used for Conduit C47
  WARNING 04: minimum elevation drop used for Conduit Cout
  
  ****************
  Analysis Options
  ****************
  Flow Units ............... CMS
  Process Models:
    Rainfall/Runoff ........ YES
    RDII ................... NO
    Snowmelt ............... NO
    Groundwater ............ NO
    Flow Routing ........... YES
    Ponding Allowed ........ NO
    Water Quality .......... NO
  Infiltration Method ...... HORTON
  Flow Routing Method ...... DYNWAVE
  Surcharge Method ......... EXTRAN
  Starting Date ............ 07/27/2011 10:00:00
  Ending Date .............. 07/27/2011 10:40:00
  Antecedent Dry Days ...... 0.0
  Report Time Step ......... 00:10:00
  Wet Time Step ............ 00:05:00
  Dry Time Step ............ 01:00:00
  Routing Time Step ........ 300.00 sec
  Variable Time Step ....... YES
  Maximum Trials ........... 8
  Number of Threads ........ 1
  Head Tolerance ........... 0.001524 m
  
  
  *********************
  Rainfall File Summary
  *********************
  Station    First        Last         Recording   Periods    Periods    Periods
  ID         Date         Date         Frequency  w/Precip    Missing    Malfunc.
  -------------------------------------------------------------------------------
  728        07/27/2011   07/27/2011      10 min         5          0          0

  
  
  **************************        Volume         Depth
  Runoff Quantity Continuity     hectare-m            mm
  **************************     ---------       -------
  Total Precipitation ......        46.988       469.900
  Evaporation Loss .........         0.000         0.000
  Infiltration Loss ........         0.000         0.000
  Surface Runoff ...........        43.962       439.637
  Final Storage ............         3.558        35.583
  Continuity Error (%) .....        -1.132
  
  
  **************************        Volume        Volume
  Flow Routing Continuity        hectare-m      10^6 ltr
  **************************     ---------     ---------
  Dry Weather Inflow .......         0.000         0.000
  Wet Weather Inflow .......        42.744       427.441
  Groundwater Inflow .......         0.000         0.000
  RDII Inflow ..............         0.000         0.000
  External Inflow ..........         0.000         0.000
  External Outflow .........         1.664        16.641
  Flooding Loss ............        40.158       401.584
  Evaporation Loss .........         0.000         0.000
  Exfiltration Loss ........         0.000         0.000
  Initial Stored Volume ....         0.046         0.463
  Final Stored Volume ......         1.883        18.831
  Continuity Error (%) .....        -2.139
  
  
  *************************
  Highest Continuity Errors
  *************************
  Node J3 (-54.16%)
  Node J13 (-28.69%)
  Node J28 (13.48%)
  Node J24 (-13.20%)
  Node J18 (-13.16%)
  
  
  ***************************
  Time-Step Critical Elements
  ***************************
  Link Cout (96.75%)
  Link C33 (1.30%)
  
  
  ********************************
  Highest Flow Instability Indexes
  ********************************
  Link C33 (4)
  Link C35 (4)
  Link C39 (4)
  Link C31 (3)
  Link C43 (3)
  
  
  *********************************
  Most Frequent Nonconverging Nodes
  *********************************
  Node OF (3.90%)
  Node J24 (1.95%)
  Node J29 (1.95%)
  Node J31 (1.95%)
  Node J17 (1.95%)
  
  
  *************************
  Routing Time Step Summary
  *************************
  Minimum Time Step           :     6.81 sec
  Average Time Step           :    15.58 sec
  Maximum Time Step           :   300.00 sec
  % of Time in Steady State   :     0.00
  Average Iterations per Step :     2.27
  % of Steps Not Converging   :     3.90
  Time Step Frequencies       :
     300.000 - 83.462 sec      :     0.65 %
     83.462 - 23.220 sec      :     0.00 %
     23.220 -  6.460 sec      :    99.35 %
      6.460 -  1.797 sec      :     0.00 %
      1.797 -  0.500 sec      :     0.00 %
  
  
  ***************************
  Subcatchment Runoff Summary
  ***************************
  
  ------------------------------------------------------------------------------------------------------------------------------
                            Total      Total      Total      Total     Imperv       Perv      Total       Total     Peak  Runoff
                           Precip      Runon       Evap      Infil     Runoff     Runoff     Runoff      Runoff   Runoff   Coeff
  Subcatchment                 mm         mm         mm         mm         mm         mm         mm    10^6 ltr      CMS
  ------------------------------------------------------------------------------------------------------------------------------
  S1                       469.90       0.00       0.00       0.00       4.65     465.25     469.90      118.54   101.46   1.000
  S2                       469.90       0.00       0.00       0.00       4.28     464.61     468.89        3.64     3.13   0.998
  S3                       469.90       0.00       0.00       0.00       4.28     465.62     469.90        0.97     0.83   1.000
  S4                       469.90       0.00       0.00       0.00       4.28     465.62     469.90        0.96     0.82   1.000
  S5                       469.90       0.00       0.00       0.00       4.28     465.62     469.90        1.41     1.20   1.000
  S6                       469.90       0.00       0.00       0.00       4.28     465.62     469.90        3.87     3.31   1.000
  S7                       469.90       0.00       0.00       0.00       4.28     465.62     469.90        0.73     0.62   1.000
  S8                       469.90       0.00       0.00       0.00       4.28     465.62     469.90        2.29     1.96   1.000
  S9                       469.90       0.00       0.00       0.00       4.28     465.62     469.90        2.83     2.42   1.000
  S10                      469.90       0.00       0.00       0.00       0.00     465.62     465.62        0.66     0.56   0.991
  S11                      469.90       0.00       0.00       0.00       4.28     441.20     445.48        6.52     5.77   0.948
  S12                      469.90       0.00       0.00       0.00       4.28     465.62     469.90        4.08     3.49   1.000
  S13                      469.90       0.00       0.00       0.00       0.00     465.62     465.62        3.93     3.36   0.991
  S14                      469.90       0.00       0.00       0.00       3.95     465.95     469.90        3.77     3.23   1.000
  S15                      469.90       0.00       0.00       0.00       3.95     465.95     469.90        3.52     3.02   1.000
  S16                      469.90       0.00       0.00       0.00       3.62     459.88     463.50        8.19     7.10   0.986
  S17                      469.90       0.00       0.00       0.00       3.62     408.84     412.46       14.04    12.17   0.878
  S18                      469.90       0.00       0.00       0.00       3.62     466.27     469.89        0.61     0.52   1.000
  S19                      469.90       0.00       0.00       0.00       3.62       0.00       3.62        0.01     0.01   0.008
  S20                      469.90       0.00       0.00       0.00       3.62     466.28     469.90        0.48     0.41   1.000
  S21                      469.90       0.00       0.00       0.00       3.62     451.63     455.25        7.55     6.63   0.969
  S22                      469.90       0.00       0.00       0.00       3.62     466.26     469.88        0.16     0.13   1.000
  S23                      469.90       0.00       0.00       0.00       3.62     466.28     469.90        0.18     0.16   1.000
  S24                      469.90       0.00       0.00       0.00       3.62     466.28     469.90        0.23     0.20   1.000
  S25                      469.90       0.00       0.00       0.00       3.62     466.28     469.90        0.28     0.24   1.000
  S26                      469.90       0.00       0.00       0.00       3.62     466.28     469.90        0.32     0.28   1.000
  S27                      469.90       0.00       0.00       0.00       3.62     466.21     469.83        3.90     3.34   1.000
  S28                      469.90       0.00       0.00       0.00       3.62     453.05     456.66        4.06     3.55   0.972
  S29                      469.90       0.00       0.00       0.00       3.62     466.28     469.89        0.43     0.37   1.000
  S30                      469.90       0.00       0.00       0.00       3.62     392.21     395.82       25.21    21.28   0.842
  S31                      469.90       0.00       0.00       0.00       3.76     466.14     469.90        6.37     5.45   1.000
  S32                      469.90       0.00       0.00       0.00       3.76     466.14     469.90        1.96     1.68   1.000
  S33                      469.90       0.00       0.00       0.00       4.42     465.48     469.90        1.46     1.25   1.000
  S34                      469.90       0.00       0.00       0.00       4.42     465.48     469.90        1.55     1.32   1.000
  S35                      469.90       0.00       0.00       0.00       4.28     465.62     469.90        1.89     1.62   1.000
  S36                      469.90       0.00       0.00       0.00       4.28     465.62     469.90        0.78     0.66   1.000
  S37                      469.90       0.00       0.00       0.00       4.28     465.62     469.90        1.69     1.45   1.000
  S38                      469.90       0.00       0.00       0.00       4.28     465.62     469.90        0.08     0.06   1.000
  S39                      469.90       0.00       0.00       0.00       4.28     465.62     469.90        1.93     1.65   1.000
  S40                      469.90       0.00       0.00       0.00       4.28     465.62     469.90        0.66     0.57   1.000
  S41                      469.90       0.00       0.00       0.00       4.28     465.62     469.90        1.07     0.91   1.000
  S42                      469.90       0.00       0.00       0.00       4.28     465.62     469.90        1.48     1.27   1.000
  S43                      469.90       0.00       0.00       0.00       4.28     465.62     469.90        3.38     2.90   1.000
  S44                      469.90       0.00       0.00       0.00       4.28     465.62     469.90        2.45     2.10   1.000
  S45                      469.90       0.00       0.00       0.00       4.28     465.62     469.90        0.25     0.21   1.000
  S46                      469.90       0.00       0.00       0.00       4.28     465.62     469.90        2.27     1.95   1.000
  S47                      469.90       0.00       0.00       0.00       4.28     465.62     469.90        4.60     3.93   1.000
  S48                      469.90       0.00       0.00       0.00       4.28     465.62     469.90        5.31     4.54   1.000
  S49                      469.90       0.00       0.00       0.00       4.28     465.62     469.90        3.23     2.76   1.000
  S50                      469.90       0.00       0.00       0.00       4.28     465.62     469.90        2.66     2.28   1.000
  S51                      469.90       0.00       0.00       0.00       4.28     465.62     469.90        1.57     1.34   1.000
  S52                      469.90       0.00       0.00       0.00       4.28     465.62     469.90        4.16     3.56   1.000
  S53                      469.90       0.00       0.00       0.00       4.28     452.98     457.26        5.57     4.88   0.973
  S54                      469.90       0.00       0.00       0.00       4.28     463.69     467.97        2.14     1.84   0.996
  S55                      469.90       0.00       0.00       0.00       4.28     465.62     469.90        0.18     0.15   1.000
  S56                      469.90       0.00       0.00       0.00       4.28     465.62     469.89        0.18     0.15   1.000
  S57                      469.90       0.00       0.00       0.00       4.28     465.62     469.90        2.43     2.08   1.000
  S58                      469.90       0.00       0.00       0.00       4.28     465.62     469.90        3.12     2.67   1.000
  S59                      469.90       0.00       0.00       0.00       4.28     465.62     469.90        3.03     2.59   1.000
  S60                      469.90       0.00       0.00       0.00       3.62     465.63     469.25        1.84     1.58   0.999
  S61                      469.90       0.00       0.00       0.00       3.62       0.00       3.62        0.01     0.01   0.008
  S62                      469.90       0.00       0.00       0.00       3.62     380.04     383.66       20.56    16.97   0.816
  S63                      469.90       0.00       0.00       0.00       3.62     466.28     469.90        4.42     3.78   1.000
  S64                      469.90       0.00       0.00       0.00       3.62     466.28     469.90       11.96    10.24   1.000
  S65                      469.90       0.00       0.00       0.00       3.62     466.28     469.90        1.91     1.63   1.000
  S66                      469.90       0.00       0.00       0.00       3.62     466.28     469.90        3.08     2.63   1.000
  S67                      469.90       0.00       0.00       0.00       3.62     466.28     469.90        5.75     4.92   1.000
  S68                      469.90       0.00       0.00       0.00       3.62     466.28     469.90        6.74     5.77   1.000
  S69                      469.90       0.00       0.00       0.00       3.62       0.00       3.62        0.09     0.08   0.008
  S70                      469.90       0.00       0.00       0.00       3.62     450.99     454.61       11.90    10.46   0.967
  S71                      469.90       0.00       0.00       0.00       4.28     465.62     469.90        6.91     5.92   1.000
  S72                      469.90       0.00       0.00       0.00       3.62     461.15     464.77        2.31     1.99   0.989
  S73                      469.90       0.00       0.00       0.00       3.62     466.28     469.90        9.85     8.43   1.000
  S74                      469.90       0.00       0.00       0.00       3.62       0.00       3.62        0.02     0.02   0.008
  S75                      469.90       0.00       0.00       0.00       3.62     466.28     469.90        0.31     0.27   1.000
  S76                      469.90       0.00       0.00       0.00       3.62     466.28     469.90        6.21     5.31   1.000
  S77                      469.90       0.00       0.00       0.00       3.62     466.28     469.90        5.02     4.30   1.000
  S78                      469.90       0.00       0.00       0.00       3.62     466.28     469.90        3.64     3.12   1.000
  S79                      469.90       0.00       0.00       0.00       4.28     465.62     469.90        3.19     2.73   1.000
  S80                      469.90       0.00       0.00       0.00       3.62     466.24     469.85        1.30     1.11   1.000
  S81                      469.90       0.00       0.00       0.00       3.62     466.28     469.90        5.31     4.55   1.000
  S82                      469.90       0.00       0.00       0.00       3.62     466.28     469.90        5.19     4.44   1.000
  S83                      469.90       0.00       0.00       0.00       3.62     466.28     469.90        3.34     2.86   1.000
  S84                      469.90       0.00       0.00       0.00       4.28     465.62     469.90        2.18     1.87   1.000
  S85                      469.90       0.00       0.00       0.00       4.28     456.03     460.31        5.69     4.96   0.980
  S86                      469.90       0.00       0.00       0.00       0.00     465.62     465.62        5.39     4.61   0.991
  S87                      469.90       0.00       0.00       0.00       4.28     465.62     469.90        5.84     5.00   1.000
  S88                      469.90       0.00       0.00       0.00       4.28     465.62     469.90        1.05     0.90   1.000
  S89                      469.90       0.00       0.00       0.00       4.28     465.62     469.90        4.75     4.07   1.000
  S90                      469.90       0.00       0.00       0.00       0.00     465.62     465.62        2.29     1.96   0.991
  S91                      469.90       0.00       0.00       0.00       4.28     465.62     469.90        0.78     0.66   1.000
  
  
  ******************
  Node Depth Summary
  ******************
  
  ---------------------------------------------------------------------------------
                                 Average  Maximum  Maximum  Time of Max    Reported
                                   Depth    Depth      HGL   Occurrence   Max Depth
  Node                 Type       Meters   Meters   Meters  days hr:min      Meters
  ---------------------------------------------------------------------------------
  J7                   JUNCTION     2.48     2.50     2.50     0  00:05        2.50
  J13                  JUNCTION     2.46     2.50     2.50     0  00:05        2.50
  J19                  JUNCTION     2.48     2.50     2.50     0  00:05        2.50
  J25                  JUNCTION     2.48     2.50     2.50     0  00:05        2.50
  J1                   JUNCTION     2.48     2.50     2.50     0  00:05        2.50
  J2                   JUNCTION     2.48     2.50     2.50     0  00:05        2.50
  J3                   JUNCTION     2.47     2.50     2.50     0  00:05        2.50
  J4                   JUNCTION     2.48     2.50     2.50     0  00:05        2.50
  J5                   JUNCTION     2.48     2.50     2.50     0  00:05        2.50
  J6                   JUNCTION     2.48     2.50     2.50     0  00:05        2.50
  J8                   JUNCTION     2.48     2.50     2.50     0  00:05        2.50
  J9                   JUNCTION     2.48     2.50     2.50     0  00:05        2.50
  J10                  JUNCTION     2.48     2.50     2.50     0  00:05        2.50
  J11                  JUNCTION     2.48     2.50     2.50     0  00:05        2.50
  J12                  JUNCTION     2.48     2.50     2.50     0  00:05        2.50
  J14                  JUNCTION     2.48     2.50     2.50     0  00:05        2.50
  J15                  JUNCTION     2.48     2.50     2.50     0  00:05        2.50
  J16                  JUNCTION     2.48     2.50     2.50     0  00:05        2.50
  J17                  JUNCTION     2.48     2.50     2.50     0  00:05        2.50
  J18                  JUNCTION     2.48     2.50     2.50     0  00:05        2.50
  J20                  JUNCTION     2.48     2.50     2.50     0  00:05        2.50
  J21                  JUNCTION     2.48     2.50     2.50     0  00:05        2.50
  J22                  JUNCTION     2.48     2.50     2.50     0  00:05        2.50
  J23                  JUNCTION     2.48     2.50     2.50     0  00:05        2.50
  J24                  JUNCTION     2.48     2.50     2.50     0  00:05        2.50
  J26                  JUNCTION     2.48     2.50     2.50     0  00:05        2.50
  J27                  JUNCTION     2.48     2.50     2.50     0  00:05        2.50
  J29                  JUNCTION     2.48     2.50     2.50     0  00:05        2.50
  J30                  JUNCTION     2.40     2.50     2.50     0  00:06        2.50
  J31                  JUNCTION     2.46     2.50     2.50     0  00:05        2.50
  J33                  JUNCTION     2.48     2.50     2.50     0  00:05        2.50
  J32                  JUNCTION     2.48     2.50     2.50     0  00:05        2.50
  J28                  JUNCTION     2.48     2.50     2.50     0  00:05        2.50
  OF                   OUTFALL      1.36     1.41     1.41     0  00:05        1.37
  
  
  *******************
  Node Inflow Summary
  *******************
  
  -------------------------------------------------------------------------------------------------
                                  Maximum  Maximum                  Lateral       Total        Flow
                                  Lateral    Total  Time of Max      Inflow      Inflow     Balance
                                   Inflow   Inflow   Occurrence      Volume      Volume       Error
  Node                 Type           CMS      CMS  days hr:min    10^6 ltr    10^6 ltr     Percent
  -------------------------------------------------------------------------------------------------
  J7                   JUNCTION    23.602   23.994     0  00:20        26.9        30.1       4.010
  J13                  JUNCTION     2.294    3.305     0  00:05        2.59        4.09     -22.294
  J19                  JUNCTION   108.729  108.729     0  00:20         124         124       2.071
  J25                  JUNCTION    12.173   12.601     0  00:20        13.5        14.5      -1.301
  J1                   JUNCTION     9.128   10.185     0  00:15        10.4        13.5       3.738
  J2                   JUNCTION     6.858   11.642     0  00:05        7.81        11.7       9.873
  J3                   JUNCTION     0.306    7.169     0  00:05       0.348        2.83     -35.134
  J4                   JUNCTION    19.857   20.013     0  00:15        22.6        22.9       0.063
  J5                   JUNCTION    16.418   17.333     0  00:15        18.7        21.3       4.660
  J6                   JUNCTION     7.183    8.135     0  00:05        8.18        10.2       4.386
  J8                   JUNCTION    11.053   11.406     0  00:15        12.6        13.3      -0.516
  J9                   JUNCTION     4.960    6.518     0  00:05        5.54         8.6      -8.861
  J10                  JUNCTION     7.417    8.187     0  00:15        8.45        10.2       0.667
  J11                  JUNCTION     7.968   11.692     0  00:05        9.08        12.8       9.328
  J12                  JUNCTION     8.430   10.694     0  00:05        9.61          13       6.391
  J14                  JUNCTION     7.143    7.426     0  00:15        8.14        8.73       1.772
  J15                  JUNCTION    10.204   10.811     0  00:20        11.5        13.2      -0.032
  J16                  JUNCTION     5.917    6.309     0  00:15        6.74        7.67       5.153
  J17                  JUNCTION     0.077    2.538     0  00:05      0.0877        2.33     -10.405
  J18                  JUNCTION     0.269    0.919     0  00:05       0.307       0.991     -11.627
  J20                  JUNCTION    19.870   19.870     0  00:20        22.4        22.4       1.097
  J21                  JUNCTION     6.594   11.870     0  00:05        7.51        11.5       7.300
  J22                  JUNCTION    13.473   13.793     0  00:20          15          16       2.039
  J23                  JUNCTION     7.097    7.228     0  00:20        7.97        8.24       1.416
  J24                  JUNCTION     0.937    3.238     0  00:05        1.07        2.66     -11.659
  J26                  JUNCTION     5.824    6.048     0  00:15        6.64        7.04      -1.863
  J27                  JUNCTION     5.108    9.641     0  00:05        5.81        8.03       9.082
  J29                  JUNCTION     8.378    9.498     0  00:15        9.55        12.1       1.894
  J30                  JUNCTION     0.000   21.266     0  00:05           0        4.72      -0.603
  J31                  JUNCTION    21.283   21.701     0  00:20        24.1        25.3       0.789
  J33                  JUNCTION     8.243    8.243     0  00:20        9.38        9.38       1.865
  J32                  JUNCTION     3.761    4.183     0  00:15        4.29        5.25       2.795
  J28                  JUNCTION     6.013   27.515     0  00:05        6.85        14.9      15.587
  OF                   OUTFALL      0.000    7.967     0  00:05           0        16.6       0.000
  
  
  **********************
  Node Surcharge Summary
  **********************
  
  Surcharging occurs when water rises above the top of the highest conduit.
  ---------------------------------------------------------------------
                                               Max. Height   Min. Depth
                                   Hours       Above Crown    Below Rim
  Node                 Type      Surcharged         Meters       Meters
  ---------------------------------------------------------------------
  J7                   JUNCTION        0.67          0.850        0.000
  J13                  JUNCTION        0.65          0.850        0.000
  J19                  JUNCTION        0.67          0.850        0.000
  J25                  JUNCTION        0.67          0.850        0.000
  J1                   JUNCTION        0.67          0.850        0.000
  J2                   JUNCTION        0.67          0.850        0.000
  J3                   JUNCTION        0.66          0.850        0.000
  J4                   JUNCTION        0.67          0.850        0.000
  J5                   JUNCTION        0.67          0.850        0.000
  J6                   JUNCTION        0.67          0.850        0.000
  J8                   JUNCTION        0.67          0.850        0.000
  J9                   JUNCTION        0.67          0.850        0.000
  J10                  JUNCTION        0.67          0.850        0.000
  J11                  JUNCTION        0.67          0.850        0.000
  J12                  JUNCTION        0.67          0.850        0.000
  J14                  JUNCTION        0.67          0.850        0.000
  J15                  JUNCTION        0.67          0.850        0.000
  J16                  JUNCTION        0.67          0.850        0.000
  J17                  JUNCTION        0.67          0.850        0.000
  J18                  JUNCTION        0.67          0.850        0.000
  J20                  JUNCTION        0.67          0.850        0.000
  J21                  JUNCTION        0.67          0.850        0.000
  J22                  JUNCTION        0.67          0.850        0.000
  J23                  JUNCTION        0.67          0.850        0.000
  J24                  JUNCTION        0.67          0.850        0.000
  J26                  JUNCTION        0.67          0.850        0.000
  J27                  JUNCTION        0.67          0.850        0.000
  J29                  JUNCTION        0.67          0.850        0.000
  J30                  JUNCTION        0.57          0.850        0.000
  J31                  JUNCTION        0.66          0.850        0.000
  J33                  JUNCTION        0.67          0.850        0.000
  J32                  JUNCTION        0.67          0.850        0.000
  J28                  JUNCTION        0.67          0.850        0.000
  
  
  *********************
  Node Flooding Summary
  *********************
  
  Flooding refers to all water that overflows a node, whether it ponds or not.
  --------------------------------------------------------------------------
                                                             Total   Maximum
                                 Maximum   Time of Max       Flood    Ponded
                        Hours       Rate    Occurrence      Volume     Depth
  Node                 Flooded       CMS   days hr:min    10^6 ltr    Meters
  --------------------------------------------------------------------------
  J7                      0.67    23.706      0  00:20      29.606     0.000
  J13                     0.57     3.273      0  00:06       3.898     0.000
  J19                     0.67   100.973      0  00:20     105.350     0.000
  J25                     0.58    12.176      0  00:20      13.100     0.000
  J1                      0.67     9.616      0  00:15      11.763     0.000
  J2                      0.58     7.430      0  00:15       8.683     0.000
  J3                      0.40     1.895      0  00:05       0.182     0.000
  J4                      0.58    18.866      0  00:20      18.155     0.000
  J5                      0.66    16.090      0  00:20      18.090     0.000
  J6                      0.58     6.459      0  00:20       5.866     0.000
  J8                      0.58    10.564      0  00:20      10.293     0.000
  J9                      0.58     5.550      0  00:20       6.489     0.000
  J10                     0.58     7.307      0  00:20       7.371     0.000
  J11                     0.58     8.098      0  00:15       9.029     0.000
  J12                     0.67     9.812      0  00:05      12.351     0.000
  J14                     0.67     6.764      0  00:20       7.021     0.000
  J15                     0.58    10.083      0  00:20      10.279     0.000
  J16                     0.58     5.432      0  00:20       5.294     0.000
  J17                     0.58     0.610      0  00:11       0.923     0.000
  J18                     0.51     0.173      0  00:20       0.119     0.000
  J20                     0.67    19.234      0  00:20      20.051     0.000
  J21                     0.67    10.101      0  00:05      10.491     0.000
  J22                     0.67    13.351      0  00:20      14.821     0.000
  J23                     0.66     6.567      0  00:20       6.443     0.000
  J24                     0.58     0.934      0  00:20       0.980     0.000
  J26                     0.58     5.631      0  00:20       5.558     0.000
  J27                     0.58     5.141      0  00:20       5.224     0.000
  J29                     0.66     8.493      0  00:15       9.295     0.000
  J30                     0.57    20.143      0  00:06       4.233     0.000
  J31                     0.65    21.218      0  00:20      23.992     0.000
  J33                     0.67     7.922      0  00:20       8.424     0.000
  J32                     0.67     3.503      0  00:20       3.649     0.000
  J28                     0.67    23.555      0  00:05      14.870     0.000
  
  
  ***********************
  Outfall Loading Summary
  ***********************
  
  -----------------------------------------------------------
                         Flow       Avg       Max       Total
                         Freq      Flow      Flow      Volume
  Outfall Node           Pcnt       CMS       CMS    10^6 ltr
  -----------------------------------------------------------
  OF                   100.00     7.314     7.967      16.641
  -----------------------------------------------------------
  System               100.00     7.314     7.967      16.641
  
  
  ********************
  Link Flow Summary
  ********************
  
  -----------------------------------------------------------------------------
                                 Maximum  Time of Max   Maximum    Max/    Max/
                                  |Flow|   Occurrence   |Veloc|    Full    Full
  Link                 Type          CMS  days hr:min     m/sec    Flow   Depth
  -----------------------------------------------------------------------------
  P1                   PUMP        0.000     0  00:00                          
  C23                  CONDUIT     1.060     0  00:05      0.50    9.22    1.00
  C24                  CONDUIT     0.910     0  00:05      0.43    7.88    1.00
  C25                  CONDUIT     0.914     0  00:05      0.43    7.30    1.00
  C26                  CONDUIT     4.928     0  00:05      2.30   38.55    1.00
  C27                  CONDUIT     3.033     0  00:05      1.42   24.95    1.00
  C28                  CONDUIT     9.374     0  00:05      4.38   64.61    1.00
  C29                  CONDUIT     3.464     0  00:05      1.62   24.39    1.00
  C30                  CONDUIT     1.268     0  00:05      0.59   11.14    1.00
  C31                  CONDUIT     1.044     0  00:06      0.49    9.14    1.00
  C32                  CONDUIT    10.910     0  00:05      5.10   70.52    1.00
  C33                  CONDUIT     7.040     0  00:05      3.34   41.19    1.00
  C34                  CONDUIT     0.604     0  00:05      0.28    4.80    1.00
  C35                  CONDUIT     1.794     0  00:05      0.84   19.07    1.00
  C36                  CONDUIT     3.579     0  00:05      1.67   33.76    1.00
  C37                  CONDUIT     4.699     0  00:05      2.20   32.26    1.00
  C38                  CONDUIT     5.291     0  00:05      2.47   36.88    1.00
  C39                  CONDUIT     4.532     0  00:05      2.12   28.73    1.00
  C40                  CONDUIT     3.348     0  00:05      1.57   23.87    1.00
  C41                  CONDUIT     0.370     0  00:05      0.17    2.87    1.00
  C43                  CONDUIT     1.140     0  00:05      0.53    8.70    1.00
  C44                  CONDUIT     2.626     0  00:06      1.23   22.42    1.00
  C45                  CONDUIT     7.638     0  00:05      3.71   65.53    1.00
  C46                  CONDUIT     5.963     0  00:05      2.96   49.41    1.00
  C48                  CONDUIT     3.525     0  00:05      1.65   27.83    1.00
  C42                  CONDUIT     7.665     0  00:05      3.72   60.78    1.00
  C50                  CONDUIT     2.126     0  00:05      0.99   20.54    1.00
  C49                  CONDUIT     3.025     0  00:05      1.41   26.41    1.00
  C01                  CONDUIT     3.591     0  00:05      1.68   29.48    1.00
  C02                  CONDUIT     1.181     0  00:05      0.55    9.35    1.00
  C03                  CONDUIT     0.186     0  00:05      0.09    1.48    1.00
  C04                  CONDUIT     1.064     0  00:05      0.50    8.37    1.00
  C05                  CONDUIT     2.844     0  00:05      1.33   22.68    1.00
  C06                  CONDUIT     0.499     0  00:05      0.23    4.38    1.00
  C07                  CONDUIT     5.503     0  00:05      2.57   48.27    1.00
  C08                  CONDUIT     1.279     0  00:05      0.60   10.46    1.00
  C09                  CONDUIT     0.966     0  00:05      0.45    8.46    1.00
  C10                  CONDUIT     0.722     0  00:05      0.34    5.76    1.00
  C11                  CONDUIT     0.739     0  00:05      0.35    6.49    1.00
  C12                  CONDUIT     1.432     0  00:05      0.67   12.34    1.00
  C13                  CONDUIT     0.147     0  00:05      0.07    1.28    1.00
  C14                  CONDUIT     0.391     0  00:05      0.18    3.11    1.00
  C15                  CONDUIT     1.016     0  00:05      0.47    8.07    1.00
  C16                  CONDUIT     5.402     0  00:05      2.53   47.42    1.00
  C17                  CONDUIT     3.409     0  00:05      1.59   30.09    1.00
  C18                  CONDUIT     2.854     0  00:05      1.33   25.37    1.00
  C19                  CONDUIT     6.511     0  00:05      3.04   51.73    1.00
  C20                  CONDUIT     0.805     0  00:05      0.38    7.17    1.00
  C21                  CONDUIT     2.179     0  00:05      1.03   20.58    1.00
  C22                  CONDUIT     3.565     0  00:05      1.67   28.14    1.00
  C47                  CONDUIT     2.885     0  00:06      1.35   29.65    1.00
  Cout                 CONDUIT     7.967     0  00:05      3.85   62.91    0.93
  
  
  ***************************
  Flow Classification Summary
  ***************************
  
  -------------------------------------------------------------------------------------
                      Adjusted    ---------- Fraction of Time in Flow Class ---------- 
                       /Actual         Up    Down  Sub   Sup   Up    Down  Norm  Inlet 
  Conduit               Length    Dry  Dry   Dry   Crit  Crit  Crit  Crit  Ltd   Ctrl  
  -------------------------------------------------------------------------------------
  C23                     1.00   0.00  0.00  0.00  1.00  0.00  0.00  0.00  0.00  0.00
  C24                     1.00   0.00  0.00  0.00  1.00  0.00  0.00  0.00  0.00  0.00
  C25                     1.00   0.00  0.00  0.00  1.00  0.00  0.00  0.00  0.00  0.00
  C26                     1.00   0.00  0.00  0.00  1.00  0.00  0.00  0.00  0.00  0.00
  C27                     1.00   0.00  0.00  0.00  1.00  0.00  0.00  0.00  0.00  0.00
  C28                     1.00   0.00  0.00  0.00  1.00  0.00  0.00  0.00  0.00  0.00
  C29                     1.00   0.00  0.00  0.00  1.00  0.00  0.00  0.00  0.00  0.00
  C30                     1.00   0.00  0.00  0.00  1.00  0.00  0.00  0.00  0.00  0.00
  C31                     1.00   0.00  0.00  0.00  1.00  0.00  0.00  0.00  0.00  0.00
  C32                     1.00   0.00  0.00  0.00  1.00  0.00  0.00  0.00  0.00  0.00
  C33                     1.00   0.00  0.00  0.00  1.00  0.00  0.00  0.00  0.00  0.00
  C34                     1.00   0.00  0.00  0.00  1.00  0.00  0.00  0.00  0.00  0.00
  C35                     1.00   0.00  0.00  0.00  1.00  0.00  0.00  0.00  0.00  0.00
  C36                     1.00   0.00  0.00  0.00  1.00  0.00  0.00  0.00  0.00  0.00
  C37                     1.00   0.00  0.00  0.00  1.00  0.00  0.00  0.00  0.00  0.00
  C38                     1.00   0.00  0.00  0.00  1.00  0.00  0.00  0.00  0.00  0.00
  C39                     1.00   0.00  0.00  0.00  1.00  0.00  0.00  0.00  0.00  0.00
  C40                     1.00   0.00  0.00  0.00  1.00  0.00  0.00  0.00  0.00  0.00
  C41                     1.00   0.00  0.00  0.00  1.00  0.00  0.00  0.00  0.00  0.00
  C43                     1.00   0.00  0.00  0.00  1.00  0.00  0.00  0.00  0.00  0.00
  C44                     1.00   0.00  0.00  0.00  1.00  0.00  0.00  0.00  0.00  0.00
  C45                     1.00   0.00  0.00  0.00  1.00  0.00  0.00  0.00  0.00  0.00
  C46                     1.00   0.00  0.00  0.00  1.00  0.00  0.00  0.00  0.00  0.00
  C48                     1.00   0.00  0.00  0.00  1.00  0.00  0.00  0.00  0.00  0.00
  C42                     1.00   0.00  0.00  0.00  0.99  0.01  0.00  0.00  0.00  0.00
  C50                     1.00   0.00  0.00  0.00  1.00  0.00  0.00  0.00  0.00  0.00
  C49                     1.00   0.00  0.00  0.00  1.00  0.00  0.00  0.00  0.00  0.00
  C01                     1.00   0.00  0.00  0.00  1.00  0.00  0.00  0.00  0.00  0.00
  C02                     1.00   0.00  0.00  0.00  1.00  0.00  0.00  0.00  0.00  0.00
  C03                     1.00   0.00  0.00  0.00  1.00  0.00  0.00  0.00  0.00  0.00
  C04                     1.00   0.00  0.00  0.00  1.00  0.00  0.00  0.00  0.00  0.00
  C05                     1.00   0.00  0.00  0.00  1.00  0.00  0.00  0.00  0.00  0.00
  C06                     1.00   0.00  0.00  0.00  1.00  0.00  0.00  0.00  0.00  0.00
  C07                     1.00   0.00  0.00  0.00  1.00  0.00  0.00  0.00  0.00  0.00
  C08                     1.00   0.00  0.00  0.00  1.00  0.00  0.00  0.00  0.00  0.00
  C09                     1.00   0.00  0.00  0.00  1.00  0.00  0.00  0.00  0.00  0.00
  C10                     1.00   0.00  0.00  0.00  1.00  0.00  0.00  0.00  0.00  0.00
  C11                     1.00   0.00  0.00  0.00  1.00  0.00  0.00  0.00  0.00  0.00
  C12                     1.00   0.00  0.00  0.00  1.00  0.00  0.00  0.00  0.00  0.00
  C13                     1.00   0.00  0.00  0.00  1.00  0.00  0.00  0.00  0.00  0.00
  C14                     1.00   0.00  0.00  0.00  1.00  0.00  0.00  0.00  0.00  0.00
  C15                     1.00   0.00  0.00  0.00  1.00  0.00  0.00  0.00  0.00  0.00
  C16                     1.00   0.00  0.00  0.00  1.00  0.00  0.00  0.00  0.00  0.00
  C17                     1.00   0.00  0.00  0.00  1.00  0.00  0.00  0.00  0.00  0.00
  C18                     1.00   0.00  0.00  0.00  1.00  0.00  0.00  0.00  0.00  0.00
  C19                     1.00   0.00  0.00  0.00  1.00  0.00  0.00  0.00  0.00  0.00
  C20                     1.00   0.00  0.00  0.00  1.00  0.00  0.00  0.00  0.00  0.00
  C21                     1.00   0.00  0.00  0.00  1.00  0.00  0.00  0.00  0.01  0.00
  C22                     1.00   0.00  0.00  0.00  1.00  0.00  0.00  0.00  0.00  0.00
  C47                     1.00   0.00  0.00  0.00  1.00  0.00  0.00  0.00  0.00  0.00
  Cout                    1.00   0.00  0.00  0.00  1.00  0.00  0.00  0.00  0.00  0.00
  
  
  *************************
  Conduit Surcharge Summary
  *************************
  
  ----------------------------------------------------------------------------
                                                           Hours        Hours 
                         --------- Hours Full --------   Above Full   Capacity
  Conduit                Both Ends  Upstream  Dnstream   Normal Flow   Limited
  ----------------------------------------------------------------------------
  C23                         0.67      0.67      0.67      0.58         0.09
  C24                         0.67      0.67      0.67      0.67         0.09
  C25                         0.67      0.67      0.67      0.67         0.01
  C26                         0.67      0.67      0.67      0.67         0.08
  C27                         0.67      0.67      0.67      0.67         0.09
  C28                         0.67      0.67      0.67      0.67         0.01
  C29                         0.67      0.67      0.67      0.67         0.08
  C30                         0.67      0.67      0.67      0.67         0.01
  C31                         0.67      0.67      0.67      0.67         0.01
  C32                         0.66      0.67      0.66      0.67         0.12
  C33                         0.66      0.66      0.67      0.67         0.01
  C34                         0.67      0.67      0.67      0.34         0.01
  C35                         0.67      0.67      0.67      0.67         0.09
  C36                         0.67      0.67      0.67      0.67         0.09
  C37                         0.67      0.67      0.67      0.67         0.01
  C38                         0.67      0.67      0.67      0.67         0.01
  C39                         0.66      0.67      0.66      0.40         0.12
  C40                         0.67      0.67      0.67      0.67         0.09
  C41                         0.67      0.67      0.67      0.53         0.01
  C43                         0.67      0.67      0.67      0.67         0.01
  C44                         0.67      0.67      0.67      0.67         0.01
  C45                         0.57      0.67      0.57      0.66         0.01
  C46                         0.56      0.57      0.66      0.58         0.01
  C48                         0.67      0.67      0.67      0.67         0.01
  C42                         0.57      0.67      0.57      0.58         0.01
  C50                         0.67      0.67      0.67      0.67         0.01
  C49                         0.67      0.67      0.67      0.67         0.01
  C01                         0.67      0.67      0.67      0.67         0.01
  C02                         0.67      0.67      0.67      0.67         0.01
  C03                         0.67      0.67      0.67      0.29         0.01
  C04                         0.67      0.67      0.67      0.58         0.09
  C05                         0.67      0.67      0.67      0.67         0.09
  C06                         0.67      0.67      0.67      0.67         0.01
  C07                         0.67      0.67      0.67      0.67         0.09
  C08                         0.67      0.67      0.67      0.67         0.09
  C09                         0.67      0.67      0.67      0.67         0.08
  C10                         0.67      0.67      0.67      0.67         0.01
  C11                         0.67      0.67      0.67      0.67         0.09
  C12                         0.67      0.67      0.67      0.67         0.09
  C13                         0.67      0.67      0.67      0.21         0.02
  C14                         0.67      0.67      0.67      0.67         0.09
  C15                         0.67      0.67      0.67      0.67         0.02
  C16                         0.67      0.67      0.67      0.67         0.01
  C17                         0.67      0.67      0.67      0.67         0.08
  C18                         0.67      0.67      0.67      0.67         0.01
  C19                         0.65      0.67      0.65      0.67         0.08
  C20                         0.67      0.67      0.67      0.58         0.01
  C21                         0.65      0.65      0.67      0.67         0.01
  C22                         0.67      0.67      0.67      0.67         0.01
  C47                         0.66      0.67      0.66      0.58         0.01
  Cout                        0.01      0.67      0.01      0.67         0.01
  
  
  ***************
  Pumping Summary
  ***************
  
  ---------------------------------------------------------------------------------------------------------
                                                  Min       Avg       Max     Total     Power    % Time Off
                        Percent   Number of      Flow      Flow      Flow    Volume     Usage    Pump Curve
  Pump                 Utilized   Start-Ups       CMS       CMS       CMS  10^6 ltr     Kw-hr    Low   High
  ---------------------------------------------------------------------------------------------------------
  P1                       0.00           0      0.00      0.00      0.00     0.000      0.00    0.0    0.0
  

  Analysis begun on:  Mon Dec  2 16:54:50 2024
  Analysis ended on:  Mon Dec  2 16:54:50 2024
  Total elapsed time: < 1 sec