
  EPA STORM WATER MANAGEMENT MODEL - VERSION 5.2 (Build 5.2.4)
  PYSWMM TOOLKIT API - VERSION v1.0 (2023-11-27)
  ------------------------------------------------------------

  WARNING 04: minimum elevation drop used for Conduit C23
  WARNING 04: minimum elevation drop used for Conduit C24
  WARNING 04: minimum elevation drop used for Conduit C25
  WARNING 04: minimum elevation drop used for Conduit C26
  WARNING 04: minimum elevation drop used for Conduit C27
  WARNING 04: minimum elevation drop used for Conduit C28
  WARNING 04: minimum elevation drop used for Conduit C29
  WARNING 04: minimum elevation drop used for Conduit C30
  WARNING 04: minimum elevation drop used for Conduit C31
  WARNING 04: minimum elevation drop used for Conduit C32
  WARNING 04: minimum elevation drop used for Conduit C33
  WARNING 04: minimum elevation drop used for Conduit C34
  WARNING 04: minimum elevation drop used for Conduit C35
  WARNING 04: minimum elevation drop used for Conduit C36
  WARNING 04: minimum elevation drop used for Conduit C37
  WARNING 04: minimum elevation drop used for Conduit C38
  WARNING 04: minimum elevation drop used for Conduit C39
  WARNING 04: minimum elevation drop used for Conduit C40
  WARNING 04: minimum elevation drop used for Conduit C41
  WARNING 04: minimum elevation drop used for Conduit C43
  WARNING 04: minimum elevation drop used for Conduit C44
  WARNING 04: minimum elevation drop used for Conduit C45
  WARNING 04: minimum elevation drop used for Conduit C46
  WARNING 04: minimum elevation drop used for Conduit C48
  WARNING 04: minimum elevation drop used for Conduit C42
  WARNING 04: minimum elevation drop used for Conduit C50
  WARNING 04: minimum elevation drop used for Conduit C49
  WARNING 04: minimum elevation drop used for Conduit C01
  WARNING 04: minimum elevation drop used for Conduit C02
  WARNING 04: minimum elevation drop used for Conduit C03
  WARNING 04: minimum elevation drop used for Conduit C04
  WARNING 04: minimum elevation drop used for Conduit C05
  WARNING 04: minimum elevation drop used for Conduit C06
  WARNING 04: minimum elevation drop used for Conduit C07
  WARNING 04: minimum elevation drop used for Conduit C08
  WARNING 04: minimum elevation drop used for Conduit C09
  WARNING 04: minimum elevation drop used for Conduit C10
  WARNING 04: minimum elevation drop used for Conduit C11
  WARNING 04: minimum elevation drop used for Conduit C12
  WARNING 04: minimum elevation drop used for Conduit C13
  WARNING 04: minimum elevation drop used for Conduit C14
  WARNING 04: minimum elevation drop used for Conduit C15
  WARNING 04: minimum elevation drop used for Conduit C16
  WARNING 04: minimum elevation drop used for Conduit C17
  WARNING 04: minimum elevation drop used for Conduit C18
  WARNING 04: minimum elevation drop used for Conduit C19
  WARNING 04: minimum elevation drop used for Conduit C20
  WARNING 04: minimum elevation drop used for Conduit C21
  WARNING 04: minimum elevation drop used for Conduit C22
  WARNING 04: minimum elevation drop used for Conduit C47
  WARNING 04: minimum elevation drop used for Conduit Cout
  
  ****************
  Analysis Options
  ****************
  Flow Units ............... CMS
  Process Models:
    Rainfall/Runoff ........ YES
    RDII ................... NO
    Snowmelt ............... NO
    Groundwater ............ NO
    Flow Routing ........... YES
    Ponding Allowed ........ NO
    Water Quality .......... NO
  Infiltration Method ...... HORTON
  Flow Routing Method ...... DYNWAVE
  Surcharge Method ......... EXTRAN
  Starting Date ............ 12/19/2022 12:00:00
  Ending Date .............. 12/19/2022 12:40:00
  Antecedent Dry Days ...... 0.0
  Report Time Step ......... 00:10:00
  Wet Time Step ............ 00:05:00
  Dry Time Step ............ 01:00:00
  Routing Time Step ........ 300.00 sec
  Variable Time Step ....... YES
  Maximum Trials ........... 8
  Number of Threads ........ 1
  Head Tolerance ........... 0.001524 m
  
  
  *********************
  Rainfall File Summary
  *********************
  Station    First        Last         Recording   Periods    Periods    Periods
  ID         Date         Date         Frequency  w/Precip    Missing    Malfunc.
  -------------------------------------------------------------------------------
  233        12/19/2022   12/19/2022      10 min         5          0          0

  
  
  **************************        Volume         Depth
  Runoff Quantity Continuity     hectare-m            mm
  **************************     ---------       -------
  Total Precipitation ......       142.234      1422.400
  Evaporation Loss .........         0.000         0.000
  Infiltration Loss ........         0.000         0.000
  Surface Runoff ...........       133.728      1337.337
  Final Storage ............        11.329       113.295
  Continuity Error (%) .....        -1.985
  
  
  **************************        Volume        Volume
  Flow Routing Continuity        hectare-m      10^6 ltr
  **************************     ---------     ---------
  Dry Weather Inflow .......         0.000         0.000
  Wet Weather Inflow .......       121.775      1217.765
  Groundwater Inflow .......         0.000         0.000
  RDII Inflow ..............         0.000         0.000
  External Inflow ..........         0.000         0.000
  External Outflow .........         1.664        16.642
  Flooding Loss ............       116.143      1161.444
  Evaporation Loss .........         0.000         0.000
  Exfiltration Loss ........         0.000         0.000
  Initial Stored Volume ....         0.046         0.463
  Final Stored Volume ......         1.883        18.831
  Continuity Error (%) .....         1.749
  
  
  *************************
  Highest Continuity Errors
  *************************
  Node J30 (18.34%)
  Node J3 (14.56%)
  Node J17 (11.21%)
  Node J24 (11.21%)
  Node J18 (8.32%)
  
  
  ***************************
  Time-Step Critical Elements
  ***************************
  Link Cout (98.69%)
  
  
  ********************************
  Highest Flow Instability Indexes
  ********************************
  Link C24 (2)
  Link C31 (2)
  Link C33 (2)
  Link C34 (2)
  Link C36 (2)
  
  
  *********************************
  Most Frequent Nonconverging Nodes
  *********************************
  Convergence obtained at all time steps.
  
  
  *************************
  Routing Time Step Summary
  *************************
  Minimum Time Step           :     4.91 sec
  Average Time Step           :    15.69 sec
  Maximum Time Step           :   300.00 sec
  % of Time in Steady State   :     0.00
  Average Iterations per Step :     2.03
  % of Steps Not Converging   :     0.00
  Time Step Frequencies       :
     300.000 - 83.462 sec      :     0.66 %
     83.462 - 23.220 sec      :     0.00 %
     23.220 -  6.460 sec      :    98.68 %
      6.460 -  1.797 sec      :     0.66 %
      1.797 -  0.500 sec      :     0.00 %
  
  
  ***************************
  Subcatchment Runoff Summary
  ***************************
  
  ------------------------------------------------------------------------------------------------------------------------------
                            Total      Total      Total      Total     Imperv       Perv      Total       Total     Peak  Runoff
                           Precip      Runon       Evap      Infil     Runoff     Runoff     Runoff      Runoff   Runoff   Coeff
  Subcatchment                 mm         mm         mm         mm         mm         mm         mm    10^6 ltr      CMS
  ------------------------------------------------------------------------------------------------------------------------------
  S1                      1422.40       0.00       0.00       0.00      14.08    1408.32    1422.40      358.82   202.92   1.000
  S2                      1422.40       0.00       0.00       0.00      12.94    1408.62    1421.56       11.05     6.25   0.999
  S3                      1422.40       0.00       0.00       0.00      12.94    1409.46    1422.40        2.94     1.67   1.000
  S4                      1422.40       0.00       0.00       0.00      12.94    1409.46    1422.40        2.92     1.65   1.000
  S5                      1422.40       0.00       0.00       0.00      12.94    1409.46    1422.40        4.25     2.41   1.000
  S6                      1422.40       0.00       0.00       0.00      12.94    1409.46    1422.40       11.72     6.63   1.000
  S7                      1422.40       0.00       0.00       0.00      12.94    1409.46    1422.40        2.20     1.25   1.000
  S8                      1422.40       0.00       0.00       0.00      12.94    1409.46    1422.40        6.93     3.92   1.000
  S9                      1422.40       0.00       0.00       0.00      12.94    1409.46    1422.40        8.56     4.84   1.000
  S10                     1422.40       0.00       0.00       0.00       0.00    1409.46    1409.46        1.99     1.12   0.991
  S11                     1422.40       0.00       0.00       0.00      12.94    1354.28    1367.22       20.00    11.73   0.961
  S12                     1422.40       0.00       0.00       0.00      12.94    1409.46    1422.40       12.35     6.98   1.000
  S13                     1422.40       0.00       0.00       0.00       0.00    1409.46    1409.46       11.90     6.73   0.991
  S14                     1422.40       0.00       0.00       0.00      11.95    1410.45    1422.40       11.42     6.46   1.000
  S15                     1422.40       0.00       0.00       0.00      11.95    1410.45    1422.40       10.67     6.03   1.000
  S16                     1422.40       0.00       0.00       0.00      10.95    1402.36    1413.32       24.96    14.21   0.994
  S17                     1422.40       0.00       0.00       0.00      10.95    1262.57    1273.52       43.36    26.66   0.895
  S18                     1422.40       0.00       0.00       0.00      10.95    1411.43    1422.38        1.83     1.04   1.000
  S19                     1422.40       0.00       0.00       0.00      10.95       0.00      10.95        0.03     0.01   0.008
  S20                     1422.40       0.00       0.00       0.00      10.95    1411.45    1422.40        1.45     0.82   1.000
  S21                     1422.40       0.00       0.00       0.00      10.95    1383.29    1394.24       23.12    13.33   0.980
  S22                     1422.40       0.00       0.00       0.00      10.95    1411.38    1422.33        0.47     0.27   1.000
  S23                     1422.40       0.00       0.00       0.00      10.95    1411.45    1422.40        0.55     0.31   1.000
  S24                     1422.40       0.00       0.00       0.00      10.95    1411.45    1422.40        0.70     0.39   1.000
  S25                     1422.40       0.00       0.00       0.00      10.95    1411.45    1422.40        0.84     0.47   1.000
  S26                     1422.40       0.00       0.00       0.00      10.95    1411.45    1422.40        0.98     0.56   1.000
  S27                     1422.40       0.00       0.00       0.00      10.95    1411.35    1422.30       11.82     6.68   1.000
  S28                     1422.40       0.00       0.00       0.00      10.95    1386.90    1397.85       12.41     7.14   0.983
  S29                     1422.40       0.00       0.00       0.00      10.95    1411.44    1422.40        1.31     0.74   1.000
  S30                     1422.40       0.00       0.00       0.00      10.95    1218.41    1229.37       78.31    49.10   0.864
  S31                     1422.40       0.00       0.00       0.00      11.38    1411.02    1422.40       19.27    10.90   1.000
  S32                     1422.40       0.00       0.00       0.00      11.38    1411.02    1422.40        5.93     3.35   1.000
  S33                     1422.40       0.00       0.00       0.00      13.37    1409.03    1422.40        4.42     2.50   1.000
  S34                     1422.40       0.00       0.00       0.00      13.37    1409.03    1422.40        4.68     2.65   1.000
  S35                     1422.40       0.00       0.00       0.00      12.94    1409.46    1422.40        5.72     3.23   1.000
  S36                     1422.40       0.00       0.00       0.00      12.94    1409.46    1422.40        2.35     1.33   1.000
  S37                     1422.40       0.00       0.00       0.00      12.94    1409.46    1422.40        5.12     2.90   1.000
  S38                     1422.40       0.00       0.00       0.00      12.94    1409.46    1422.40        0.23     0.13   1.000
  S39                     1422.40       0.00       0.00       0.00      12.94    1409.46    1422.40        5.83     3.30   1.000
  S40                     1422.40       0.00       0.00       0.00      12.94    1409.46    1422.40        2.01     1.13   1.000
  S41                     1422.40       0.00       0.00       0.00      12.94    1409.46    1422.40        3.23     1.83   1.000
  S42                     1422.40       0.00       0.00       0.00      12.94    1409.46    1422.40        4.49     2.54   1.000
  S43                     1422.40       0.00       0.00       0.00      12.94    1409.46    1422.40       10.24     5.79   1.000
  S44                     1422.40       0.00       0.00       0.00      12.94    1409.46    1422.40        7.42     4.20   1.000
  S45                     1422.40       0.00       0.00       0.00      12.94    1409.46    1422.40        0.75     0.43   1.000
  S46                     1422.40       0.00       0.00       0.00      12.94    1409.46    1422.40        6.88     3.89   1.000
  S47                     1422.40       0.00       0.00       0.00      12.94    1409.46    1422.40       13.91     7.87   1.000
  S48                     1422.40       0.00       0.00       0.00      12.94    1409.46    1422.40       16.07     9.09   1.000
  S49                     1422.40       0.00       0.00       0.00      12.94    1409.46    1422.40        9.77     5.53   1.000
  S50                     1422.40       0.00       0.00       0.00      12.94    1409.46    1422.40        8.05     4.55   1.000
  S51                     1422.40       0.00       0.00       0.00      12.94    1409.46    1422.40        4.75     2.69   1.000
  S52                     1422.40       0.00       0.00       0.00      12.94    1409.46    1422.40       12.59     7.12   1.000
  S53                     1422.40       0.00       0.00       0.00      12.94    1386.38    1399.32       17.04     9.79   0.984
  S54                     1422.40       0.00       0.00       0.00      12.94    1407.59    1420.53        6.49     3.68   0.999
  S55                     1422.40       0.00       0.00       0.00      12.94    1409.46    1422.40        0.54     0.31   1.000
  S56                     1422.40       0.00       0.00       0.00      12.94    1409.37    1422.32        0.54     0.31   1.000
  S57                     1422.40       0.00       0.00       0.00      12.94    1409.46    1422.40        7.35     4.16   1.000
  S58                     1422.40       0.00       0.00       0.00      12.94    1409.46    1422.40        9.44     5.34   1.000
  S59                     1422.40       0.00       0.00       0.00      12.94    1409.46    1422.40        9.17     5.19   1.000
  S60                     1422.40       0.00       0.00       0.00      10.95    1410.95    1421.90        5.59     3.16   1.000
  S61                     1422.40       0.00       0.00       0.00      10.95       0.00      10.95        0.04     0.02   0.008
  S62                     1422.40       0.00       0.00       0.00      10.95    1187.29    1198.24       64.21    40.81   0.842
  S63                     1422.40       0.00       0.00       0.00      10.95    1411.45    1422.40       13.37     7.56   1.000
  S64                     1422.40       0.00       0.00       0.00      10.95    1411.45    1422.40       36.20    20.47   1.000
  S65                     1422.40       0.00       0.00       0.00      10.95    1411.45    1422.40        5.77     3.27   1.000
  S66                     1422.40       0.00       0.00       0.00      10.95    1411.45    1422.40        9.32     5.27   1.000
  S67                     1422.40       0.00       0.00       0.00      10.95    1411.45    1422.40       17.41     9.85   1.000
  S68                     1422.40       0.00       0.00       0.00      10.95    1411.45    1422.40       20.41    11.54   1.000
  S69                     1422.40       0.00       0.00       0.00      10.95       0.00      10.95        0.27     0.15   0.008
  S70                     1422.40       0.00       0.00       0.00      10.95    1381.61    1392.56       36.44    21.03   0.979
  S71                     1422.40       0.00       0.00       0.00      12.94    1409.46    1422.40       20.92    11.83   1.000
  S72                     1422.40       0.00       0.00       0.00      10.95    1404.72    1415.67        7.02     3.99   0.995
  S73                     1422.40       0.00       0.00       0.00      10.95    1411.45    1422.40       29.81    16.86   1.000
  S74                     1422.40       0.00       0.00       0.00      10.95       0.00      10.95        0.07     0.04   0.008
  S75                     1422.40       0.00       0.00       0.00      10.95    1411.45    1422.40        0.95     0.54   1.000
  S76                     1422.40       0.00       0.00       0.00      10.95    1411.45    1422.40       18.79    10.63   1.000
  S77                     1422.40       0.00       0.00       0.00      10.95    1411.45    1422.40       15.21     8.60   1.000
  S78                     1422.40       0.00       0.00       0.00      10.95    1411.45    1422.40       11.02     6.23   1.000
  S79                     1422.40       0.00       0.00       0.00      12.94    1409.46    1422.40        9.66     5.46   1.000
  S80                     1422.40       0.00       0.00       0.00      10.95    1411.35    1422.30        3.93     2.22   1.000
  S81                     1422.40       0.00       0.00       0.00      10.95    1411.45    1422.40       16.09     9.10   1.000
  S82                     1422.40       0.00       0.00       0.00      10.95    1411.45    1422.40       15.70     8.88   1.000
  S83                     1422.40       0.00       0.00       0.00      10.95    1411.45    1422.40       10.10     5.71   1.000
  S84                     1422.40       0.00       0.00       0.00      12.94    1409.46    1422.40        6.60     3.73   1.000
  S85                     1422.40       0.00       0.00       0.00      12.94    1393.64    1406.59       17.39     9.94   0.989
  S86                     1422.40       0.00       0.00       0.00       0.00    1409.46    1409.46       16.31     9.22   0.991
  S87                     1422.40       0.00       0.00       0.00      12.94    1409.46    1422.40       17.67     9.99   1.000
  S88                     1422.40       0.00       0.00       0.00      12.94    1409.46    1422.40        3.19     1.80   1.000
  S89                     1422.40       0.00       0.00       0.00      12.94    1409.46    1422.40       14.38     8.13   1.000
  S90                     1422.40       0.00       0.00       0.00       0.00    1409.46    1409.46        6.92     3.91   0.991
  S91                     1422.40       0.00       0.00       0.00      12.94    1409.46    1422.40        2.35     1.33   1.000
  
  
  ******************
  Node Depth Summary
  ******************
  
  ---------------------------------------------------------------------------------
                                 Average  Maximum  Maximum  Time of Max    Reported
                                   Depth    Depth      HGL   Occurrence   Max Depth
  Node                 Type       Meters   Meters   Meters  days hr:min      Meters
  ---------------------------------------------------------------------------------
  J7                   JUNCTION     2.48     2.50     2.50     0  00:05        2.50
  J13                  JUNCTION     2.48     2.50     2.50     0  00:05        2.50
  J19                  JUNCTION     2.48     2.50     2.50     0  00:05        2.50
  J25                  JUNCTION     2.48     2.50     2.50     0  00:05        2.50
  J1                   JUNCTION     2.48     2.50     2.50     0  00:05        2.50
  J2                   JUNCTION     2.48     2.50     2.50     0  00:05        2.50
  J3                   JUNCTION     2.48     2.50     2.50     0  00:05        2.50
  J4                   JUNCTION     2.48     2.50     2.50     0  00:05        2.50
  J5                   JUNCTION     2.48     2.50     2.50     0  00:05        2.50
  J6                   JUNCTION     2.48     2.50     2.50     0  00:05        2.50
  J8                   JUNCTION     2.48     2.50     2.50     0  00:05        2.50
  J9                   JUNCTION     2.48     2.50     2.50     0  00:05        2.50
  J10                  JUNCTION     2.48     2.50     2.50     0  00:05        2.50
  J11                  JUNCTION     2.48     2.50     2.50     0  00:05        2.50
  J12                  JUNCTION     2.48     2.50     2.50     0  00:05        2.50
  J14                  JUNCTION     2.48     2.50     2.50     0  00:05        2.50
  J15                  JUNCTION     2.48     2.50     2.50     0  00:05        2.50
  J16                  JUNCTION     2.48     2.50     2.50     0  00:05        2.50
  J17                  JUNCTION     2.48     2.50     2.50     0  00:05        2.50
  J18                  JUNCTION     2.48     2.50     2.50     0  00:05        2.50
  J20                  JUNCTION     2.48     2.50     2.50     0  00:05        2.50
  J21                  JUNCTION     2.48     2.50     2.50     0  00:05        2.50
  J22                  JUNCTION     2.48     2.50     2.50     0  00:05        2.50
  J23                  JUNCTION     2.48     2.50     2.50     0  00:05        2.50
  J24                  JUNCTION     2.48     2.50     2.50     0  00:05        2.50
  J26                  JUNCTION     2.48     2.50     2.50     0  00:05        2.50
  J27                  JUNCTION     2.48     2.50     2.50     0  00:05        2.50
  J29                  JUNCTION     2.48     2.50     2.50     0  00:05        2.50
  J30                  JUNCTION     2.48     2.50     2.50     0  00:05        2.50
  J31                  JUNCTION     2.48     2.50     2.50     0  00:05        2.50
  J33                  JUNCTION     2.48     2.50     2.50     0  00:05        2.50
  J32                  JUNCTION     2.48     2.50     2.50     0  00:05        2.50
  J28                  JUNCTION     2.48     2.50     2.50     0  00:05        2.50
  OF                   OUTFALL      1.36     1.41     1.41     0  00:05        1.37
  
  
  *******************
  Node Inflow Summary
  *******************
  
  -------------------------------------------------------------------------------------------------
                                  Maximum  Maximum                  Lateral       Total        Flow
                                  Lateral    Total  Time of Max      Inflow      Inflow     Balance
                                   Inflow   Inflow   Occurrence      Volume      Volume       Error
  Node                 Type           CMS      CMS  days hr:min    10^6 ltr    10^6 ltr     Percent
  -------------------------------------------------------------------------------------------------
  J7                   JUNCTION    54.014   54.014     0  00:40        78.7        78.7       1.485
  J13                  JUNCTION     4.589    4.589     0  00:40        7.37        7.37       3.615
  J19                  JUNCTION   217.483  217.483     0  00:40         351         351       3.507
  J25                  JUNCTION    26.599   26.765     0  00:40        39.1        40.2       2.198
  J1                   JUNCTION    18.256   18.256     0  00:40        29.5        29.5       3.644
  J2                   JUNCTION    13.715   13.829     0  00:35        22.1        22.5       2.546
  J3                   JUNCTION     0.611   13.656     0  00:05       0.987        6.75      17.045
  J4                   JUNCTION    39.714   40.058     0  00:35        64.1        65.6       3.042
  J5                   JUNCTION    32.837   32.837     0  00:40          53          53       1.862
  J6                   JUNCTION    14.367   14.367     0  00:40        23.2        23.2       3.522
  J8                   JUNCTION    22.106   22.106     0  00:40        35.7        35.7       3.708
  J9                   JUNCTION     9.937    9.937     0  00:40        15.8        15.8       2.527
  J10                  JUNCTION    14.834   14.834     0  00:40        23.9        23.9       2.984
  J11                  JUNCTION    15.936   16.250     0  00:35        25.7          27       3.016
  J12                  JUNCTION    16.861   17.154     0  00:35        27.2        28.3       3.110
  J14                  JUNCTION    14.287   14.287     0  00:40        23.1        23.1       3.708
  J15                  JUNCTION    20.439   20.439     0  00:40        32.7        32.7       3.304
  J16                  JUNCTION    11.833   12.368     0  00:35        19.1        21.7       3.172
  J17                  JUNCTION     0.154    7.190     0  00:05       0.248        4.63      12.627
  J18                  JUNCTION     0.539    3.744     0  00:05        0.87         3.1       9.072
  J20                  JUNCTION    39.914   39.914     0  00:40        63.7        63.7       3.501
  J21                  JUNCTION    13.187   13.187     0  00:35        21.3        21.3       3.708
  J22                  JUNCTION    27.052   27.052     0  00:40        42.9        42.9       3.086
  J23                  JUNCTION    14.203   14.353     0  00:40        22.8        23.5       2.857
  J24                  JUNCTION     1.873    9.361     0  00:05        3.02         6.1      12.621
  J26                  JUNCTION    11.648   11.648     0  00:35        18.8        18.8       3.708
  J27                  JUNCTION    10.216   10.579     0  00:35        16.5        18.4       3.372
  J29                  JUNCTION    16.756   17.053     0  00:35          27        28.2       3.190
  J30                  JUNCTION     0.000   15.218     0  00:05           0        5.95      22.452
  J31                  JUNCTION    48.968   49.114     0  00:40        70.5        71.1       1.711
  J33                  JUNCTION    16.487   16.487     0  00:40        26.6        26.6       3.703
  J32                  JUNCTION     7.521    7.521     0  00:40        12.1        12.1       3.357
  J28                  JUNCTION    12.026   12.425     0  00:05        19.4        21.9       2.937
  OF                   OUTFALL      0.000    7.968     0  00:05           0        16.6       0.000
  
  
  **********************
  Node Surcharge Summary
  **********************
  
  Surcharging occurs when water rises above the top of the highest conduit.
  ---------------------------------------------------------------------
                                               Max. Height   Min. Depth
                                   Hours       Above Crown    Below Rim
  Node                 Type      Surcharged         Meters       Meters
  ---------------------------------------------------------------------
  J7                   JUNCTION        0.67          0.850        0.000
  J13                  JUNCTION        0.67          0.850        0.000
  J19                  JUNCTION        0.67          0.850        0.000
  J25                  JUNCTION        0.67          0.850        0.000
  J1                   JUNCTION        0.67          0.850        0.000
  J2                   JUNCTION        0.67          0.850        0.000
  J3                   JUNCTION        0.67          0.850        0.000
  J4                   JUNCTION        0.67          0.850        0.000
  J5                   JUNCTION        0.67          0.850        0.000
  J6                   JUNCTION        0.67          0.850        0.000
  J8                   JUNCTION        0.67          0.850        0.000
  J9                   JUNCTION        0.67          0.850        0.000
  J10                  JUNCTION        0.67          0.850        0.000
  J11                  JUNCTION        0.67          0.850        0.000
  J12                  JUNCTION        0.67          0.850        0.000
  J14                  JUNCTION        0.67          0.850        0.000
  J15                  JUNCTION        0.67          0.850        0.000
  J16                  JUNCTION        0.67          0.850        0.000
  J17                  JUNCTION        0.67          0.850        0.000
  J18                  JUNCTION        0.67          0.850        0.000
  J20                  JUNCTION        0.67          0.850        0.000
  J21                  JUNCTION        0.67          0.850        0.000
  J22                  JUNCTION        0.67          0.850        0.000
  J23                  JUNCTION        0.67          0.850        0.000
  J24                  JUNCTION        0.67          0.850        0.000
  J26                  JUNCTION        0.67          0.850        0.000
  J27                  JUNCTION        0.67          0.850        0.000
  J29                  JUNCTION        0.67          0.850        0.000
  J30                  JUNCTION        0.67          0.850        0.000
  J31                  JUNCTION        0.67          0.850        0.000
  J33                  JUNCTION        0.67          0.850        0.000
  J32                  JUNCTION        0.67          0.850        0.000
  J28                  JUNCTION        0.67          0.850        0.000
  
  
  *********************
  Node Flooding Summary
  *********************
  
  Flooding refers to all water that overflows a node, whether it ponds or not.
  --------------------------------------------------------------------------
                                                             Total   Maximum
                                 Maximum   Time of Max       Flood    Ponded
                        Hours       Rate    Occurrence      Volume     Depth
  Node                 Flooded       CMS   days hr:min    10^6 ltr    Meters
  --------------------------------------------------------------------------
  J7                      0.67    53.710      0  00:40      76.013     0.000
  J13                     0.67     4.588      0  00:40       7.372     0.000
  J19                     0.67   210.129      0  00:40     334.130     0.000
  J25                     0.67    26.445      0  00:40      39.007     0.000
  J1                      0.67    18.151      0  00:40      29.105     0.000
  J2                      0.67    13.478      0  00:40      20.118     0.000
  J3                      0.67    12.770      0  00:05       6.750     0.000
  J4                      0.67    39.707      0  00:40      62.781     0.000
  J5                      0.67    32.209      0  00:40      47.588     0.000
  J6                      0.67    14.226      0  00:40      22.563     0.000
  J8                      0.67    22.106      0  00:40      35.675     0.000
  J9                      0.67     9.761      0  00:40      14.577     0.000
  J10                     0.67    14.382      0  00:40      21.710     0.000
  J11                     0.67    15.916      0  00:40      25.031     0.000
  J12                     0.67    16.951      0  00:35      26.847     0.000
  J14                     0.67    14.287      0  00:40      23.056     0.000
  J15                     0.67    20.274      0  00:40      31.812     0.000
  J16                     0.67    12.161      0  00:35      20.047     0.000
  J17                     0.67     6.927      0  00:05       4.626     0.000
  J18                     0.67     3.429      0  00:05       2.778     0.000
  J20                     0.67    39.902      0  00:40      63.676     0.000
  J21                     0.67    13.187      0  00:35      21.282     0.000
  J22                     0.67    26.733      0  00:40      41.335     0.000
  J23                     0.67    14.020      0  00:40      21.485     0.000
  J24                     0.67     8.621      0  00:05       6.099     0.000
  J26                     0.67    11.648      0  00:35      18.798     0.000
  J27                     0.67    10.378      0  00:35      17.042     0.000
  J29                     0.67    16.701      0  00:40      26.288     0.000
  J30                     0.67    13.749      0  00:05       5.947     0.000
  J31                     0.67    48.811      0  00:40      69.593     0.000
  J33                     0.67    16.487      0  00:40      26.600     0.000
  J32                     0.67     7.381      0  00:40      11.518     0.000
  J28                     0.67    12.210      0  00:35      19.871     0.000
  
  
  ***********************
  Outfall Loading Summary
  ***********************
  
  -----------------------------------------------------------
                         Flow       Avg       Max       Total
                         Freq      Flow      Flow      Volume
  Outfall Node           Pcnt       CMS       CMS    10^6 ltr
  -----------------------------------------------------------
  OF                   100.00     7.312     7.968      16.642
  -----------------------------------------------------------
  System               100.00     7.312     7.968      16.642
  
  
  ********************
  Link Flow Summary
  ********************
  
  -----------------------------------------------------------------------------
                                 Maximum  Time of Max   Maximum    Max/    Max/
                                  |Flow|   Occurrence   |Veloc|    Full    Full
  Link                 Type          CMS  days hr:min     m/sec    Flow   Depth
  -----------------------------------------------------------------------------
  P1                   PUMP        0.000     0  00:00                          
  C23                  CONDUIT     0.000     0  00:00      0.00    0.00    1.00
  C24                  CONDUIT     0.909     0  00:05      0.42    7.87    1.00
  C25                  CONDUIT     0.000     0  00:00      0.00    0.00    1.00
  C26                  CONDUIT     0.603     0  00:05      0.28    4.72    1.00
  C27                  CONDUIT     0.000     0  00:00      0.00    0.00    1.00
  C28                  CONDUIT     1.957     0  00:05      0.92   13.49    1.00
  C29                  CONDUIT     0.237     0  00:05      0.11    1.67    1.00
  C30                  CONDUIT     0.719     0  00:05      0.34    6.31    1.00
  C31                  CONDUIT     0.504     0  00:05      0.24    4.41    1.00
  C32                  CONDUIT     4.852     0  00:05      2.27   31.36    1.00
  C33                  CONDUIT     6.142     0  00:05      2.87   35.94    1.00
  C34                  CONDUIT     0.850     0  00:05      0.40    6.77    1.00
  C35                  CONDUIT     0.000     0  00:05      0.00    0.00    1.00
  C36                  CONDUIT     0.544     0  00:05      0.25    5.14    1.00
  C37                  CONDUIT     1.923     0  00:05      0.90   13.20    1.00
  C38                  CONDUIT     1.554     0  00:05      0.73   10.83    1.00
  C39                  CONDUIT     2.227     0  00:05      1.04   14.11    1.00
  C40                  CONDUIT     0.000     0  00:00      0.00    0.00    1.00
  C41                  CONDUIT     0.000     0  00:00      0.00    0.00    1.00
  C43                  CONDUIT     0.000     0  00:00      0.00    0.00    1.00
  C44                  CONDUIT     0.386     0  00:05      0.18    3.29    1.00
  C45                  CONDUIT    10.912     0  00:05      5.10   93.63    1.00
  C46                  CONDUIT     2.867     0  00:05      1.34   23.76    1.00
  C48                  CONDUIT     0.000     0  00:05      0.00    0.00    1.00
  C42                  CONDUIT     1.438     0  00:05      0.67   11.40    1.00
  C50                  CONDUIT     0.544     0  00:05      0.25    5.25    1.00
  C49                  CONDUIT     0.835     0  00:05      0.39    7.29    1.00
  C01                  CONDUIT     0.000     0  00:00      0.00    0.00    1.00
  C02                  CONDUIT     0.000     0  00:00      0.00    0.00    1.00
  C03                  CONDUIT     0.731     0  00:05      0.34    5.84    1.00
  C04                  CONDUIT     1.333     0  00:05      0.62   10.49    1.00
  C05                  CONDUIT     0.256     0  00:05      0.12    2.04    1.00
  C06                  CONDUIT     0.000     0  00:00      0.00    0.00    1.00
  C07                  CONDUIT     0.000     0  00:00      0.00    0.00    1.00
  C08                  CONDUIT     0.000     0  00:00      0.00    0.00    1.00
  C09                  CONDUIT     0.894     0  00:05      0.42    7.83    1.00
  C10                  CONDUIT     1.032     0  00:05      0.48    8.23    1.00
  C11                  CONDUIT     0.000     0  00:00      0.00    0.00    1.00
  C12                  CONDUIT     1.215     0  00:05      0.57   10.47    1.00
  C13                  CONDUIT     0.777     0  00:05      0.36    6.76    1.00
  C14                  CONDUIT     3.099     0  00:05      1.45   24.62    1.00
  C15                  CONDUIT     0.206     0  00:05      0.10    1.64    1.00
  C16                  CONDUIT     7.774     0  00:05      3.64   68.25    1.00
  C17                  CONDUIT     2.561     0  00:05      1.20   22.60    1.00
  C18                  CONDUIT     0.000     0  00:00      0.00    0.00    1.00
  C19                  CONDUIT     0.000     0  00:00      0.00    0.00    1.00
  C20                  CONDUIT     2.584     0  00:05      1.21   23.01    1.00
  C21                  CONDUIT     0.000     0  00:05      0.00    0.00    1.00
  C22                  CONDUIT     0.364     0  00:05      0.17    2.88    1.00
  C47                  CONDUIT     0.639     0  00:05      0.30    6.57    1.00
  Cout                 CONDUIT     7.968     0  00:05      3.85   62.92    0.93
  
  
  ***************************
  Flow Classification Summary
  ***************************
  
  -------------------------------------------------------------------------------------
                      Adjusted    ---------- Fraction of Time in Flow Class ---------- 
                       /Actual         Up    Down  Sub   Sup   Up    Down  Norm  Inlet 
  Conduit               Length    Dry  Dry   Dry   Crit  Crit  Crit  Crit  Ltd   Ctrl  
  -------------------------------------------------------------------------------------
  C23                     1.00   0.00  0.00  0.00  1.00  0.00  0.00  0.00  0.00  0.00
  C24                     1.00   0.00  0.00  0.00  1.00  0.00  0.00  0.00  0.00  0.00
  C25                     1.00   0.00  0.00  0.00  1.00  0.00  0.00  0.00  0.00  0.00
  C26                     1.00   0.00  0.00  0.00  1.00  0.00  0.00  0.00  0.00  0.00
  C27                     1.00   0.00  0.00  0.00  1.00  0.00  0.00  0.00  0.00  0.00
  C28                     1.00   0.00  0.00  0.00  1.00  0.00  0.00  0.00  0.00  0.00
  C29                     1.00   0.00  0.00  0.00  1.00  0.00  0.00  0.00  0.00  0.00
  C30                     1.00   0.00  0.00  0.00  1.00  0.00  0.00  0.00  0.00  0.00
  C31                     1.00   0.00  0.00  0.00  1.00  0.00  0.00  0.00  0.00  0.00
  C32                     1.00   0.00  0.00  0.00  1.00  0.00  0.00  0.00  0.00  0.00
  C33                     1.00   0.00  0.00  0.00  1.00  0.00  0.00  0.00  0.00  0.00
  C34                     1.00   0.00  0.00  0.00  1.00  0.00  0.00  0.00  0.00  0.00
  C35                     1.00   0.00  0.00  0.00  1.00  0.00  0.00  0.00  0.00  0.00
  C36                     1.00   0.00  0.00  0.00  1.00  0.00  0.00  0.00  0.00  0.00
  C37                     1.00   0.00  0.00  0.00  1.00  0.00  0.00  0.00  0.00  0.00
  C38                     1.00   0.00  0.00  0.00  1.00  0.00  0.00  0.00  0.00  0.00
  C39                     1.00   0.00  0.00  0.00  1.00  0.00  0.00  0.00  0.00  0.00
  C40                     1.00   0.00  0.00  0.00  1.00  0.00  0.00  0.00  0.00  0.00
  C41                     1.00   0.00  0.00  0.00  1.00  0.00  0.00  0.00  0.00  0.00
  C43                     1.00   0.00  0.00  0.00  1.00  0.00  0.00  0.00  0.00  0.00
  C44                     1.00   0.00  0.00  0.00  1.00  0.00  0.00  0.00  0.00  0.00
  C45                     1.00   0.00  0.00  0.00  1.00  0.00  0.00  0.00  0.00  0.00
  C46                     1.00   0.00  0.00  0.00  1.00  0.00  0.00  0.00  0.00  0.00
  C48                     1.00   0.00  0.00  0.00  1.00  0.00  0.00  0.00  0.00  0.00
  C42                     1.00   0.00  0.00  0.00  1.00  0.00  0.00  0.00  0.00  0.00
  C50                     1.00   0.00  0.00  0.00  1.00  0.00  0.00  0.00  0.00  0.00
  C49                     1.00   0.00  0.00  0.00  1.00  0.00  0.00  0.00  0.00  0.00
  C01                     1.00   0.00  0.00  0.00  1.00  0.00  0.00  0.00  0.00  0.00
  C02                     1.00   0.00  0.00  0.00  1.00  0.00  0.00  0.00  0.00  0.00
  C03                     1.00   0.00  0.00  0.00  1.00  0.00  0.00  0.00  0.00  0.00
  C04                     1.00   0.00  0.00  0.00  1.00  0.00  0.00  0.00  0.00  0.00
  C05                     1.00   0.00  0.00  0.00  1.00  0.00  0.00  0.00  0.00  0.00
  C06                     1.00   0.00  0.00  0.00  1.00  0.00  0.00  0.00  0.00  0.00
  C07                     1.00   0.00  0.00  0.00  1.00  0.00  0.00  0.00  0.00  0.00
  C08                     1.00   0.00  0.00  0.00  1.00  0.00  0.00  0.00  0.00  0.00
  C09                     1.00   0.00  0.00  0.00  1.00  0.00  0.00  0.00  0.00  0.00
  C10                     1.00   0.00  0.00  0.00  1.00  0.00  0.00  0.00  0.00  0.00
  C11                     1.00   0.00  0.00  0.00  1.00  0.00  0.00  0.00  0.00  0.00
  C12                     1.00   0.00  0.00  0.00  1.00  0.00  0.00  0.00  0.00  0.00
  C13                     1.00   0.00  0.00  0.00  1.00  0.00  0.00  0.00  0.00  0.00
  C14                     1.00   0.00  0.00  0.00  1.00  0.00  0.00  0.00  0.00  0.00
  C15                     1.00   0.00  0.00  0.00  1.00  0.00  0.00  0.00  0.00  0.00
  C16                     1.00   0.00  0.00  0.00  1.00  0.00  0.00  0.00  0.00  0.00
  C17                     1.00   0.00  0.00  0.00  1.00  0.00  0.00  0.00  0.00  0.00
  C18                     1.00   0.00  0.00  0.00  1.00  0.00  0.00  0.00  0.00  0.00
  C19                     1.00   0.00  0.00  0.00  1.00  0.00  0.00  0.00  0.00  0.00
  C20                     1.00   0.00  0.00  0.00  1.00  0.00  0.00  0.00  0.00  0.00
  C21                     1.00   0.00  0.00  0.00  1.00  0.00  0.00  0.00  0.00  0.00
  C22                     1.00   0.00  0.00  0.00  1.00  0.00  0.00  0.00  0.00  0.00
  C47                     1.00   0.00  0.00  0.00  1.00  0.00  0.00  0.00  0.00  0.00
  Cout                    1.00   0.00  0.00  0.00  1.00  0.00  0.00  0.00  0.00  0.00
  
  
  *************************
  Conduit Surcharge Summary
  *************************
  
  ----------------------------------------------------------------------------
                                                           Hours        Hours 
                         --------- Hours Full --------   Above Full   Capacity
  Conduit                Both Ends  Upstream  Dnstream   Normal Flow   Limited
  ----------------------------------------------------------------------------
  C23                         0.67      0.67      0.67      0.01         0.01
  C24                         0.67      0.67      0.67      0.67         0.01
  C25                         0.67      0.67      0.67      0.01         0.01
  C26                         0.67      0.67      0.67      0.67         0.01
  C27                         0.67      0.67      0.67      0.01         0.01
  C28                         0.67      0.67      0.67      0.67         0.01
  C29                         0.67      0.67      0.67      0.39         0.01
  C30                         0.67      0.67      0.67      0.67         0.01
  C31                         0.67      0.67      0.67      0.67         0.01
  C32                         0.67      0.67      0.67      0.67         0.01
  C33                         0.67      0.67      0.67      0.67         0.01
  C34                         0.67      0.67      0.67      0.67         0.01
  C35                         0.67      0.67      0.67      0.01         0.01
  C36                         0.67      0.67      0.67      0.67         0.01
  C37                         0.67      0.67      0.67      0.67         0.01
  C38                         0.67      0.67      0.67      0.67         0.01
  C39                         0.67      0.67      0.67      0.67         0.01
  C40                         0.67      0.67      0.67      0.01         0.01
  C41                         0.67      0.67      0.67      0.01         0.01
  C43                         0.67      0.67      0.67      0.01         0.01
  C44                         0.67      0.67      0.67      0.67         0.01
  C45                         0.67      0.67      0.67      0.67         0.01
  C46                         0.67      0.67      0.67      0.67         0.01
  C48                         0.67      0.67      0.67      0.01         0.01
  C42                         0.67      0.67      0.67      0.67         0.01
  C50                         0.67      0.67      0.67      0.67         0.01
  C49                         0.67      0.67      0.67      0.67         0.01
  C01                         0.67      0.67      0.67      0.01         0.01
  C02                         0.67      0.67      0.67      0.01         0.01
  C03                         0.67      0.67      0.67      0.67         0.01
  C04                         0.67      0.67      0.67      0.67         0.01
  C05                         0.67      0.67      0.67      0.53         0.01
  C06                         0.67      0.67      0.67      0.01         0.01
  C07                         0.67      0.67      0.67      0.01         0.01
  C08                         0.67      0.67      0.67      0.01         0.01
  C09                         0.67      0.67      0.67      0.67         0.01
  C10                         0.67      0.67      0.67      0.67         0.01
  C11                         0.67      0.67      0.67      0.01         0.01
  C12                         0.67      0.67      0.67      0.67         0.01
  C13                         0.67      0.67      0.67      0.67         0.01
  C14                         0.67      0.67      0.67      0.67         0.01
  C15                         0.67      0.67      0.67      0.42         0.01
  C16                         0.67      0.67      0.67      0.67         0.01
  C17                         0.67      0.67      0.67      0.67         0.01
  C18                         0.67      0.67      0.67      0.01         0.01
  C19                         0.67      0.67      0.67      0.01         0.01
  C20                         0.67      0.67      0.67      0.67         0.01
  C21                         0.67      0.67      0.67      0.01         0.01
  C22                         0.67      0.67      0.67      0.65         0.01
  C47                         0.67      0.67      0.67      0.67         0.01
  Cout                        0.01      0.67      0.01      0.67         0.01
  
  
  ***************
  Pumping Summary
  ***************
  
  ---------------------------------------------------------------------------------------------------------
                                                  Min       Avg       Max     Total     Power    % Time Off
                        Percent   Number of      Flow      Flow      Flow    Volume     Usage    Pump Curve
  Pump                 Utilized   Start-Ups       CMS       CMS       CMS  10^6 ltr     Kw-hr    Low   High
  ---------------------------------------------------------------------------------------------------------
  P1                       0.00           0      0.00      0.00      0.00     0.000      0.00    0.0    0.0
  

  Analysis begun on:  Thu Nov 28 15:15:35 2024
  Analysis ended on:  Thu Nov 28 15:15:35 2024
  Total elapsed time: < 1 sec