
  EPA STORM WATER MANAGEMENT MODEL - VERSION 5.2 (Build 5.2.4)
  PYSWMM TOOLKIT API - VERSION v1.0 (2023-11-27)
  ------------------------------------------------------------

  WARNING 04: minimum elevation drop used for Conduit C23
  WARNING 04: minimum elevation drop used for Conduit C24
  WARNING 04: minimum elevation drop used for Conduit C25
  WARNING 04: minimum elevation drop used for Conduit C26
  WARNING 04: minimum elevation drop used for Conduit C27
  WARNING 04: minimum elevation drop used for Conduit C28
  WARNING 04: minimum elevation drop used for Conduit C29
  WARNING 04: minimum elevation drop used for Conduit C30
  WARNING 04: minimum elevation drop used for Conduit C31
  WARNING 04: minimum elevation drop used for Conduit C32
  WARNING 04: minimum elevation drop used for Conduit C33
  WARNING 04: minimum elevation drop used for Conduit C34
  WARNING 04: minimum elevation drop used for Conduit C35
  WARNING 04: minimum elevation drop used for Conduit C36
  WARNING 04: minimum elevation drop used for Conduit C37
  WARNING 04: minimum elevation drop used for Conduit C38
  WARNING 04: minimum elevation drop used for Conduit C39
  WARNING 04: minimum elevation drop used for Conduit C40
  WARNING 04: minimum elevation drop used for Conduit C41
  WARNING 04: minimum elevation drop used for Conduit C43
  WARNING 04: minimum elevation drop used for Conduit C44
  WARNING 04: minimum elevation drop used for Conduit C45
  WARNING 04: minimum elevation drop used for Conduit C46
  WARNING 04: minimum elevation drop used for Conduit C48
  WARNING 04: minimum elevation drop used for Conduit C42
  WARNING 04: minimum elevation drop used for Conduit C50
  WARNING 04: minimum elevation drop used for Conduit C49
  WARNING 04: minimum elevation drop used for Conduit C01
  WARNING 04: minimum elevation drop used for Conduit C02
  WARNING 04: minimum elevation drop used for Conduit C03
  WARNING 04: minimum elevation drop used for Conduit C04
  WARNING 04: minimum elevation drop used for Conduit C05
  WARNING 04: minimum elevation drop used for Conduit C06
  WARNING 04: minimum elevation drop used for Conduit C07
  WARNING 04: minimum elevation drop used for Conduit C08
  WARNING 04: minimum elevation drop used for Conduit C09
  WARNING 04: minimum elevation drop used for Conduit C10
  WARNING 04: minimum elevation drop used for Conduit C11
  WARNING 04: minimum elevation drop used for Conduit C12
  WARNING 04: minimum elevation drop used for Conduit C13
  WARNING 04: minimum elevation drop used for Conduit C14
  WARNING 04: minimum elevation drop used for Conduit C15
  WARNING 04: minimum elevation drop used for Conduit C16
  WARNING 04: minimum elevation drop used for Conduit C17
  WARNING 04: minimum elevation drop used for Conduit C18
  WARNING 04: minimum elevation drop used for Conduit C19
  WARNING 04: minimum elevation drop used for Conduit C20
  WARNING 04: minimum elevation drop used for Conduit C21
  WARNING 04: minimum elevation drop used for Conduit C22
  WARNING 04: minimum elevation drop used for Conduit C47
  WARNING 04: minimum elevation drop used for Conduit Cout
  
  ****************
  Analysis Options
  ****************
  Flow Units ............... CMS
  Process Models:
    Rainfall/Runoff ........ YES
    RDII ................... NO
    Snowmelt ............... NO
    Groundwater ............ NO
    Flow Routing ........... YES
    Ponding Allowed ........ NO
    Water Quality .......... NO
  Infiltration Method ...... HORTON
  Flow Routing Method ...... DYNWAVE
  Surcharge Method ......... EXTRAN
  Starting Date ............ 09/16/2013 08:00:00
  Ending Date .............. 09/16/2013 09:40:00
  Antecedent Dry Days ...... 0.0
  Report Time Step ......... 00:10:00
  Wet Time Step ............ 00:05:00
  Dry Time Step ............ 01:00:00
  Routing Time Step ........ 300.00 sec
  Variable Time Step ....... YES
  Maximum Trials ........... 8
  Number of Threads ........ 1
  Head Tolerance ........... 0.001524 m
  
  
  *********************
  Rainfall File Summary
  *********************
  Station    First        Last         Recording   Periods    Periods    Periods
  ID         Date         Date         Frequency  w/Precip    Missing    Malfunc.
  -------------------------------------------------------------------------------
  101        09/16/2013   09/16/2013      10 min        11          0          0

  
  
  **************************        Volume         Depth
  Runoff Quantity Continuity     hectare-m            mm
  **************************     ---------       -------
  Total Precipitation ......       367.991      3680.062
  Evaporation Loss .........         0.000         0.000
  Infiltration Loss ........         0.000         0.000
  Surface Runoff ...........       352.078      3520.921
  Final Storage ............        17.668       176.685
  Continuity Error (%) .....        -0.477
  
  
  **************************        Volume        Volume
  Flow Routing Continuity        hectare-m      10^6 ltr
  **************************     ---------     ---------
  Dry Weather Inflow .......         0.000         0.000
  Wet Weather Inflow .......       346.409      3464.128
  Groundwater Inflow .......         0.000         0.000
  RDII Inflow ..............         0.000         0.000
  External Inflow ..........         0.000         0.000
  External Outflow .........         4.309        43.095
  Flooding Loss ............       338.729      3387.330
  Evaporation Loss .........         0.000         0.000
  Exfiltration Loss ........         0.000         0.000
  Initial Stored Volume ....         0.046         0.463
  Final Stored Volume ......         1.883        18.831
  Continuity Error (%) .....         0.443
  
  
  *************************
  Highest Continuity Errors
  *************************
  Node J30 (11.63%)
  Node J3 (10.05%)
  Node J17 (7.93%)
  Node J18 (4.51%)
  Node J24 (3.66%)
  
  
  ***************************
  Time-Step Critical Elements
  ***************************
  Link Cout (99.51%)
  
  
  ********************************
  Highest Flow Instability Indexes
  ********************************
  All links are stable.
  
  
  *********************************
  Most Frequent Nonconverging Nodes
  *********************************
  Convergence obtained at all time steps.
  
  
  *************************
  Routing Time Step Summary
  *************************
  Minimum Time Step           :     4.91 sec
  Average Time Step           :    14.60 sec
  Maximum Time Step           :   300.00 sec
  % of Time in Steady State   :     0.00
  Average Iterations per Step :     2.01
  % of Steps Not Converging   :     0.00
  Time Step Frequencies       :
     300.000 - 83.462 sec      :     0.24 %
     83.462 - 23.220 sec      :     0.00 %
     23.220 -  6.460 sec      :    99.27 %
      6.460 -  1.797 sec      :     0.49 %
      1.797 -  0.500 sec      :     0.00 %
  
  
  ***************************
  Subcatchment Runoff Summary
  ***************************
  
  ------------------------------------------------------------------------------------------------------------------------------
                            Total      Total      Total      Total     Imperv       Perv      Total       Total     Peak  Runoff
                           Precip      Runon       Evap      Infil     Runoff     Runoff     Runoff      Runoff   Runoff   Coeff
  Subcatchment                 mm         mm         mm         mm         mm         mm         mm    10^6 ltr      CMS
  ------------------------------------------------------------------------------------------------------------------------------
  S1                      3680.06       0.00       0.00       0.00      36.43    3643.63    3680.06      928.34   244.58   1.000
  S2                      3680.06       0.00       0.00       0.00      33.49    3646.34    3679.83       28.59     7.53   1.000
  S3                      3680.06       0.00       0.00       0.00      33.49    3646.57    3680.06        7.62     2.01   1.000
  S4                      3680.06       0.00       0.00       0.00      33.49    3646.57    3680.06        7.54     1.99   1.000
  S5                      3680.06       0.00       0.00       0.00      33.49    3646.57    3680.06       11.00     2.90   1.000
  S6                      3680.06       0.00       0.00       0.00      33.49    3646.57    3680.06       30.32     7.99   1.000
  S7                      3680.06       0.00       0.00       0.00      33.49    3646.57    3680.06        5.70     1.50   1.000
  S8                      3680.06       0.00       0.00       0.00      33.49    3646.57    3680.06       17.92     4.72   1.000
  S9                      3680.06       0.00       0.00       0.00      33.49    3646.57    3680.06       22.15     5.84   1.000
  S10                     3680.06       0.00       0.00       0.00       0.00    3646.57    3646.57        5.14     1.35   0.991
  S11                     3680.06       0.00       0.00       0.00      33.49    3608.54    3642.03       53.28    14.18   0.990
  S12                     3680.06       0.00       0.00       0.00      33.49    3646.57    3680.06       31.94     8.42   1.000
  S13                     3680.06       0.00       0.00       0.00       0.00    3646.57    3646.57       30.78     8.11   0.991
  S14                     3680.06       0.00       0.00       0.00      30.91    3649.15    3680.06       29.55     7.79   1.000
  S15                     3680.06       0.00       0.00       0.00      30.91    3649.15    3680.06       27.60     7.27   1.000
  S16                     3680.06       0.00       0.00       0.00      28.34    3646.45    3674.78       64.90    17.12   0.999
  S17                     3680.06       0.00       0.00       0.00      28.34    3546.78    3575.11      121.73    32.88   0.971
  S18                     3680.06       0.00       0.00       0.00      28.34    3651.63    3679.97        4.75     1.25   1.000
  S19                     3680.06       0.00       0.00       0.00      28.34       0.00      28.34        0.07     0.02   0.008
  S20                     3680.06       0.00       0.00       0.00      28.34    3651.60    3679.94        3.75     0.99   1.000
  S21                     3680.06       0.00       0.00       0.00      28.34    3633.08    3661.42       60.71    16.07   0.995
  S22                     3680.06       0.00       0.00       0.00      28.34    3651.59    3679.92        1.21     0.32   1.000
  S23                     3680.06       0.00       0.00       0.00      28.34    3651.73    3680.06        1.44     0.38   1.000
  S24                     3680.06       0.00       0.00       0.00      28.34    3651.73    3680.06        1.80     0.48   1.000
  S25                     3680.06       0.00       0.00       0.00      28.34    3651.73    3680.06        2.17     0.57   1.000
  S26                     3680.06       0.00       0.00       0.00      28.34    3651.73    3680.06        2.54     0.67   1.000
  S27                     3680.06       0.00       0.00       0.00      28.34    3651.74    3680.08       30.58     8.06   1.000
  S28                     3680.06       0.00       0.00       0.00      28.34    3635.66    3663.99       32.54     8.61   0.996
  S29                     3680.06       0.00       0.00       0.00      28.34    3651.63    3679.97        3.39     0.89   1.000
  S30                     3680.06       0.00       0.00       0.00      28.34    3515.05    3543.38      225.71    61.31   0.963
  S31                     3680.06       0.00       0.00       0.00      29.44    3650.62    3680.06       49.87    13.14   1.000
  S32                     3680.06       0.00       0.00       0.00      29.44    3650.62    3680.06       15.35     4.04   1.000
  S33                     3680.06       0.00       0.00       0.00      34.59    3645.47    3680.06       11.45     3.02   1.000
  S34                     3680.06       0.00       0.00       0.00      34.59    3645.47    3680.06       12.11     3.19   1.000
  S35                     3680.06       0.00       0.00       0.00      33.49    3646.57    3680.06       14.79     3.90   1.000
  S36                     3680.06       0.00       0.00       0.00      33.49    3646.57    3680.06        6.07     1.60   1.000
  S37                     3680.06       0.00       0.00       0.00      33.49    3646.57    3680.06       13.25     3.49   1.000
  S38                     3680.06       0.00       0.00       0.00      33.49    3646.57    3680.06        0.59     0.16   1.000
  S39                     3680.06       0.00       0.00       0.00      33.49    3646.57    3680.06       15.09     3.98   1.000
  S40                     3680.06       0.00       0.00       0.00      33.49    3646.57    3680.06        5.19     1.37   1.000
  S41                     3680.06       0.00       0.00       0.00      33.49    3646.57    3680.06        8.35     2.20   1.000
  S42                     3680.06       0.00       0.00       0.00      33.49    3646.57    3680.06       11.63     3.06   1.000
  S43                     3680.06       0.00       0.00       0.00      33.49    3646.57    3680.06       26.50     6.98   1.000
  S44                     3680.06       0.00       0.00       0.00      33.49    3646.57    3680.06       19.21     5.06   1.000
  S45                     3680.06       0.00       0.00       0.00      33.49    3646.57    3680.06        1.95     0.51   1.000
  S46                     3680.06       0.00       0.00       0.00      33.49    3646.57    3680.06       17.81     4.69   1.000
  S47                     3680.06       0.00       0.00       0.00      33.49    3646.57    3680.06       35.99     9.48   1.000
  S48                     3680.06       0.00       0.00       0.00      33.49    3646.57    3680.06       41.58    10.96   1.000
  S49                     3680.06       0.00       0.00       0.00      33.49    3646.57    3680.06       25.28     6.66   1.000
  S50                     3680.06       0.00       0.00       0.00      33.49    3646.57    3680.06       20.83     5.49   1.000
  S51                     3680.06       0.00       0.00       0.00      33.49    3646.57    3680.06       12.29     3.24   1.000
  S52                     3680.06       0.00       0.00       0.00      33.49    3646.57    3680.06       32.57     8.58   1.000
  S53                     3680.06       0.00       0.00       0.00      33.49    3631.54    3665.03       44.64    11.81   0.996
  S54                     3680.06       0.00       0.00       0.00      33.49    3645.85    3679.34       16.81     4.43   1.000
  S55                     3680.06       0.00       0.00       0.00      33.49    3646.57    3680.06        1.40     0.37   1.000
  S56                     3680.06       0.00       0.00       0.00      33.49    3646.53    3680.02        1.40     0.37   1.000
  S57                     3680.06       0.00       0.00       0.00      33.49    3646.57    3680.06       19.03     5.01   1.000
  S58                     3680.06       0.00       0.00       0.00      33.49    3646.57    3680.06       24.44     6.44   1.000
  S59                     3680.06       0.00       0.00       0.00      33.49    3646.57    3680.06       23.74     6.25   1.000
  S60                     3680.06       0.00       0.00       0.00      28.34    3651.60    3679.94       14.46     3.81   1.000
  S61                     3680.06       0.00       0.00       0.00      28.34       0.00      28.34        0.09     0.02   0.008
  S62                     3680.06       0.00       0.00       0.00      28.34    3492.31    3520.65      188.67    51.43   0.957
  S63                     3680.06       0.00       0.00       0.00      28.34    3651.73    3680.06       34.59     9.11   1.000
  S64                     3680.06       0.00       0.00       0.00      28.34    3651.73    3680.06       93.66    24.67   1.000
  S65                     3680.06       0.00       0.00       0.00      28.34    3651.73    3680.06       14.94     3.94   1.000
  S66                     3680.06       0.00       0.00       0.00      28.34    3651.73    3680.06       24.10     6.35   1.000
  S67                     3680.06       0.00       0.00       0.00      28.34    3651.73    3680.06       45.04    11.87   1.000
  S68                     3680.06       0.00       0.00       0.00      28.34    3651.73    3680.06       52.81    13.91   1.000
  S69                     3680.06       0.00       0.00       0.00      28.34       0.00      28.34        0.70     0.19   0.008
  S70                     3680.06       0.00       0.00       0.00      28.34    3631.88    3660.22       95.79    25.37   0.995
  S71                     3680.06       0.00       0.00       0.00      33.49    3646.57    3680.06       54.13    14.26   1.000
  S72                     3680.06       0.00       0.00       0.00      28.34    3648.01    3676.35       18.23     4.81   0.999
  S73                     3680.06       0.00       0.00       0.00      28.34    3651.73    3680.06       77.13    20.32   1.000
  S74                     3680.06       0.00       0.00       0.00      28.34       0.00      28.34        0.19     0.05   0.008
  S75                     3680.06       0.00       0.00       0.00      28.34    3651.73    3680.06        2.47     0.65   1.000
  S76                     3680.06       0.00       0.00       0.00      28.34    3651.73    3680.06       48.61    12.81   1.000
  S77                     3680.06       0.00       0.00       0.00      31.71    3651.73    3683.44       39.38    10.36   1.001
  S78                     3680.06       0.00       0.00       0.00      28.34    3651.73    3680.06       28.52     7.51   1.000
  S79                     3680.06       0.00       0.00       0.00      33.49    3646.57    3680.06       24.99     6.58   1.000
  S80                     3680.06       0.00       0.00       0.00      28.34    3651.74    3680.08       10.16     2.68   1.000
  S81                     3680.06       0.00       0.00       0.00      28.34    3651.73    3680.06       41.62    10.97   1.000
  S82                     3680.06       0.00       0.00       0.00      28.34    3651.73    3680.06       40.63    10.70   1.000
  S83                     3680.06       0.00       0.00       0.00      28.34    3651.73    3680.06       26.13     6.88   1.000
  S84                     3680.06       0.00       0.00       0.00      33.49    3646.57    3680.06       17.08     4.50   1.000
  S85                     3680.06       0.00       0.00       0.00      33.49    3636.66    3670.15       45.36    11.98   0.997
  S86                     3680.06       0.00       0.00       0.00       0.00    3646.57    3646.57       42.19    11.12   0.991
  S87                     3680.06       0.00       0.00       0.00      33.49    3646.57    3680.06       45.71    12.04   1.000
  S88                     3680.06       0.00       0.00       0.00      33.49    3646.57    3680.06        8.24     2.17   1.000
  S89                     3680.06       0.00       0.00       0.00      33.49    3646.57    3680.06       37.21     9.80   1.000
  S90                     3680.06       0.00       0.00       0.00       0.00    3646.57    3646.57       17.90     4.72   0.991
  S91                     3680.06       0.00       0.00       0.00      33.49    3646.57    3680.06        6.07     1.60   1.000
  
  
  ******************
  Node Depth Summary
  ******************
  
  ---------------------------------------------------------------------------------
                                 Average  Maximum  Maximum  Time of Max    Reported
                                   Depth    Depth      HGL   Occurrence   Max Depth
  Node                 Type       Meters   Meters   Meters  days hr:min      Meters
  ---------------------------------------------------------------------------------
  J7                   JUNCTION     2.49     2.50     2.50     0  00:05        2.50
  J13                  JUNCTION     2.49     2.50     2.50     0  00:05        2.50
  J19                  JUNCTION     2.49     2.50     2.50     0  00:05        2.50
  J25                  JUNCTION     2.49     2.50     2.50     0  00:05        2.50
  J1                   JUNCTION     2.49     2.50     2.50     0  00:05        2.50
  J2                   JUNCTION     2.49     2.50     2.50     0  00:05        2.50
  J3                   JUNCTION     2.49     2.50     2.50     0  00:05        2.50
  J4                   JUNCTION     2.49     2.50     2.50     0  00:05        2.50
  J5                   JUNCTION     2.49     2.50     2.50     0  00:05        2.50
  J6                   JUNCTION     2.49     2.50     2.50     0  00:05        2.50
  J8                   JUNCTION     2.49     2.50     2.50     0  00:05        2.50
  J9                   JUNCTION     2.49     2.50     2.50     0  00:05        2.50
  J10                  JUNCTION     2.49     2.50     2.50     0  00:05        2.50
  J11                  JUNCTION     2.49     2.50     2.50     0  00:05        2.50
  J12                  JUNCTION     2.49     2.50     2.50     0  00:05        2.50
  J14                  JUNCTION     2.49     2.50     2.50     0  00:05        2.50
  J15                  JUNCTION     2.49     2.50     2.50     0  00:05        2.50
  J16                  JUNCTION     2.49     2.50     2.50     0  00:05        2.50
  J17                  JUNCTION     2.49     2.50     2.50     0  00:05        2.50
  J18                  JUNCTION     2.49     2.50     2.50     0  00:05        2.50
  J20                  JUNCTION     2.49     2.50     2.50     0  00:05        2.50
  J21                  JUNCTION     2.49     2.50     2.50     0  00:05        2.50
  J22                  JUNCTION     2.49     2.50     2.50     0  00:05        2.50
  J23                  JUNCTION     2.49     2.50     2.50     0  00:05        2.50
  J24                  JUNCTION     2.49     2.50     2.50     0  00:05        2.50
  J26                  JUNCTION     2.49     2.50     2.50     0  00:05        2.50
  J27                  JUNCTION     2.49     2.50     2.50     0  00:05        2.50
  J29                  JUNCTION     2.49     2.50     2.50     0  00:05        2.50
  J30                  JUNCTION     2.49     2.50     2.50     0  00:05        2.50
  J31                  JUNCTION     2.49     2.50     2.50     0  00:05        2.50
  J33                  JUNCTION     2.49     2.50     2.50     0  00:05        2.50
  J32                  JUNCTION     2.49     2.50     2.50     0  00:05        2.50
  J28                  JUNCTION     2.49     2.50     2.50     0  00:05        2.50
  OF                   OUTFALL      1.37     1.41     1.41     0  00:05        1.37
  
  
  *******************
  Node Inflow Summary
  *******************
  
  -------------------------------------------------------------------------------------------------
                                  Maximum  Maximum                  Lateral       Total        Flow
                                  Lateral    Total  Time of Max      Inflow      Inflow     Balance
                                   Inflow   Inflow   Occurrence      Volume      Volume       Error
  Node                 Type           CMS      CMS  days hr:min    10^6 ltr    10^6 ltr     Percent
  -------------------------------------------------------------------------------------------------
  J7                   JUNCTION    67.508   67.558     0  01:10         245         245       0.436
  J13                  JUNCTION     5.531    5.531     0  01:10        20.6        20.6       1.039
  J19                  JUNCTION   262.134  262.134     0  01:10         979         979       1.045
  J25                  JUNCTION    32.875   32.971     0  01:10         120         121       0.606
  J1                   JUNCTION    22.003   22.003     0  01:05        82.2        82.2       1.088
  J2                   JUNCTION    16.531   16.611     0  01:05        61.8        62.5       0.836
  J3                   JUNCTION     0.737   13.528     0  00:05        2.75        9.65      11.172
  J4                   JUNCTION    47.866   48.063     0  01:05         179         181       0.903
  J5                   JUNCTION    39.577   39.577     0  01:10         148         148       0.722
  J6                   JUNCTION    17.316   17.316     0  01:05        64.7        64.7       1.032
  J8                   JUNCTION    26.643   26.643     0  01:10        99.5        99.5       1.115
  J9                   JUNCTION    11.983   11.983     0  01:10        44.6        44.6       0.689
  J10                  JUNCTION    17.878   17.878     0  01:05        66.8        66.8       0.837
  J11                  JUNCTION    19.207   19.395     0  01:05        71.8        73.8       0.915
  J12                  JUNCTION    20.322   20.505     0  01:05        75.9        77.8       0.957
  J14                  JUNCTION    17.219   17.219     0  01:05        64.3        64.3       1.115
  J15                  JUNCTION    24.645   24.645     0  01:10        91.9        91.9       0.965
  J16                  JUNCTION    14.262   14.559     0  01:05        53.3          57       1.029
  J17                  JUNCTION     0.186    7.002     0  00:05       0.693        6.33       8.615
  J18                  JUNCTION     0.650    3.422     0  00:05        2.43        5.19       4.727
  J20                  JUNCTION    48.168   48.168     0  01:10         179         179       1.033
  J21                  JUNCTION    15.894   15.894     0  01:05        59.4        59.4       1.115
  J22                  JUNCTION    32.642   32.642     0  01:10         121         121       0.870
  J23                  JUNCTION    17.122   17.214     0  01:10        63.9        65.1       0.849
  J24                  JUNCTION     2.257    5.632     0  00:05        8.43        11.2       3.796
  J26                  JUNCTION    14.039   14.039     0  01:10        52.4        52.4       1.115
  J27                  JUNCTION    12.313   12.513     0  01:05          46        48.7       1.099
  J29                  JUNCTION    20.196   20.384     0  01:05        75.4        77.5       0.999
  J30                  JUNCTION     0.000    9.593     0  00:05           0         5.9      13.158
  J31                  JUNCTION    61.309   61.400     0  01:10         222         223       0.417
  J33                  JUNCTION    19.871   19.871     0  01:05        74.2        74.2       1.112
  J32                  JUNCTION     9.065    9.065     0  01:05        33.9        33.9       0.971
  J28                  JUNCTION    14.495   14.698     0  01:05        54.1          57       0.816
  OF                   OUTFALL      0.000    7.968     0  00:05           0        43.1       0.000
  
  
  **********************
  Node Surcharge Summary
  **********************
  
  Surcharging occurs when water rises above the top of the highest conduit.
  ---------------------------------------------------------------------
                                               Max. Height   Min. Depth
                                   Hours       Above Crown    Below Rim
  Node                 Type      Surcharged         Meters       Meters
  ---------------------------------------------------------------------
  J7                   JUNCTION        1.67          0.850        0.000
  J13                  JUNCTION        1.67          0.850        0.000
  J19                  JUNCTION        1.67          0.850        0.000
  J25                  JUNCTION        1.67          0.850        0.000
  J1                   JUNCTION        1.67          0.850        0.000
  J2                   JUNCTION        1.67          0.850        0.000
  J3                   JUNCTION        1.67          0.850        0.000
  J4                   JUNCTION        1.67          0.850        0.000
  J5                   JUNCTION        1.67          0.850        0.000
  J6                   JUNCTION        1.67          0.850        0.000
  J8                   JUNCTION        1.67          0.850        0.000
  J9                   JUNCTION        1.67          0.850        0.000
  J10                  JUNCTION        1.67          0.850        0.000
  J11                  JUNCTION        1.67          0.850        0.000
  J12                  JUNCTION        1.67          0.850        0.000
  J14                  JUNCTION        1.67          0.850        0.000
  J15                  JUNCTION        1.67          0.850        0.000
  J16                  JUNCTION        1.67          0.850        0.000
  J17                  JUNCTION        1.67          0.850        0.000
  J18                  JUNCTION        1.67          0.850        0.000
  J20                  JUNCTION        1.67          0.850        0.000
  J21                  JUNCTION        1.67          0.850        0.000
  J22                  JUNCTION        1.67          0.850        0.000
  J23                  JUNCTION        1.67          0.850        0.000
  J24                  JUNCTION        1.67          0.850        0.000
  J26                  JUNCTION        1.67          0.850        0.000
  J27                  JUNCTION        1.67          0.850        0.000
  J29                  JUNCTION        1.67          0.850        0.000
  J30                  JUNCTION        1.67          0.850        0.000
  J31                  JUNCTION        1.67          0.850        0.000
  J33                  JUNCTION        1.67          0.850        0.000
  J32                  JUNCTION        1.67          0.850        0.000
  J28                  JUNCTION        1.67          0.850        0.000
  
  
  *********************
  Node Flooding Summary
  *********************
  
  Flooding refers to all water that overflows a node, whether it ponds or not.
  --------------------------------------------------------------------------
                                                             Total   Maximum
                                 Maximum   Time of Max       Flood    Ponded
                        Hours       Rate    Occurrence      Volume     Depth
  Node                 Flooded       CMS   days hr:min    10^6 ltr    Meters
  --------------------------------------------------------------------------
  J7                      1.67    67.442      0  01:10     243.129     0.000
  J13                     1.67     5.481      0  01:10      20.277     0.000
  J19                     1.67   254.783      0  01:10     935.995     0.000
  J25                     1.67    32.821      0  01:10     119.755     0.000
  J1                      1.67    21.928      0  01:10      81.496     0.000
  J2                      1.67    16.419      0  01:10      59.729     0.000
  J3                      1.67    12.650      0  00:05       9.646     0.000
  J4                      1.67    47.861      0  01:10     177.460     0.000
  J5                      1.67    39.206      0  01:10     141.845     0.000
  J6                      1.67    17.226      0  01:10      63.612     0.000
  J8                      1.67    26.643      0  01:10      99.528     0.000
  J9                      1.67    11.886      0  01:10      42.974     0.000
  J10                     1.67    17.606      0  01:10      63.383     0.000
  J11                     1.67    19.202      0  01:10      71.090     0.000
  J12                     1.67    20.399      0  01:05      76.011     0.000
  J14                     1.67    17.219      0  01:05      64.324     0.000
  J15                     1.67    24.552      0  01:10      90.596     0.000
  J16                     1.67    14.452      0  01:05      54.980     0.000
  J17                     1.67     6.746      0  00:05       6.330     0.000
  J18                     1.67     3.147      0  00:05       4.669     0.000
  J20                     1.67    48.167      0  01:10     179.380     0.000
  J21                     1.67    15.894      0  01:05      59.374     0.000
  J22                     1.67    32.457      0  01:10     118.982     0.000
  J23                     1.67    17.025      0  01:10      62.311     0.000
  J24                     1.67     5.376      0  00:05      11.190     0.000
  J26                     1.67    14.039      0  01:10      52.444     0.000
  J27                     1.67    12.408      0  01:05      46.962     0.000
  J29                     1.67    20.186      0  01:10      74.936     0.000
  J30                     1.67     9.054      0  00:05       5.902     0.000
  J31                     1.67    61.285      0  01:10     221.085     0.000
  J33                     1.67    19.871      0  01:05      74.229     0.000
  J32                     1.67     8.977      0  01:10      32.830     0.000
  J28                     1.67    14.590      0  01:05      54.563     0.000
  
  
  ***********************
  Outfall Loading Summary
  ***********************
  
  -----------------------------------------------------------
                         Flow       Avg       Max       Total
                         Freq      Flow      Flow      Volume
  Outfall Node           Pcnt       CMS       CMS    10^6 ltr
  -----------------------------------------------------------
  OF                   100.00     7.336     7.968      43.094
  -----------------------------------------------------------
  System               100.00     7.336     7.968      43.094
  
  
  ********************
  Link Flow Summary
  ********************
  
  -----------------------------------------------------------------------------
                                 Maximum  Time of Max   Maximum    Max/    Max/
                                  |Flow|   Occurrence   |Veloc|    Full    Full
  Link                 Type          CMS  days hr:min     m/sec    Flow   Depth
  -----------------------------------------------------------------------------
  P1                   PUMP        0.000     0  00:00                          
  C23                  CONDUIT     0.000     0  00:00      0.00    0.00    1.00
  C24                  CONDUIT     0.952     0  00:05      0.45    8.25    1.00
  C25                  CONDUIT     0.000     0  00:00      0.00    0.00    1.00
  C26                  CONDUIT     0.698     0  00:05      0.33    5.46    1.00
  C27                  CONDUIT     0.000     0  00:00      0.00    0.00    1.00
  C28                  CONDUIT     2.018     0  00:05      0.94   13.91    1.00
  C29                  CONDUIT     0.294     0  00:05      0.14    2.07    1.00
  C30                  CONDUIT     0.875     0  00:05      0.41    7.69    1.00
  C31                  CONDUIT     0.576     0  00:05      0.27    5.04    1.00
  C32                  CONDUIT     4.855     0  00:05      2.27   31.38    1.00
  C33                  CONDUIT     6.121     0  00:05      2.86   35.81    1.00
  C34                  CONDUIT     1.012     0  00:05      0.47    8.05    1.00
  C35                  CONDUIT     0.000     0  00:05      0.00    0.00    1.00
  C36                  CONDUIT     0.720     0  00:05      0.34    6.80    1.00
  C37                  CONDUIT     0.933     0  00:05      0.44    6.41    1.00
  C38                  CONDUIT     1.637     0  00:05      0.77   11.41    1.00
  C39                  CONDUIT     2.157     0  00:05      1.01   13.67    1.00
  C40                  CONDUIT     0.000     0  00:00      0.00    0.00    1.00
  C41                  CONDUIT     0.000     0  00:00      0.00    0.00    1.00
  C43                  CONDUIT     0.000     0  00:00      0.00    0.00    1.00
  C44                  CONDUIT     0.652     0  00:05      0.30    5.56    1.00
  C45                  CONDUIT     5.454     0  00:05      2.55   46.80    1.00
  C46                  CONDUIT     2.768     0  00:05      1.29   22.93    1.00
  C48                  CONDUIT     0.000     0  00:05      0.00    0.00    1.00
  C42                  CONDUIT     1.371     0  00:05      0.64   10.87    1.00
  C50                  CONDUIT     0.662     0  00:05      0.31    6.39    1.00
  C49                  CONDUIT     0.850     0  00:05      0.40    7.42    1.00
  C01                  CONDUIT     0.000     0  00:00      0.00    0.00    1.00
  C02                  CONDUIT     0.000     0  00:00      0.00    0.00    1.00
  C03                  CONDUIT     0.960     0  00:05      0.45    7.67    1.00
  C04                  CONDUIT     1.522     0  00:05      0.71   11.97    1.00
  C05                  CONDUIT     0.135     0  00:05      0.06    1.08    1.00
  C06                  CONDUIT     0.000     0  00:00      0.00    0.00    1.00
  C07                  CONDUIT     0.000     0  00:00      0.00    0.00    1.00
  C08                  CONDUIT     0.000     0  00:00      0.00    0.00    1.00
  C09                  CONDUIT     0.937     0  00:05      0.44    8.20    1.00
  C10                  CONDUIT     1.080     0  00:05      0.51    8.61    1.00
  C11                  CONDUIT     0.000     0  00:00      0.00    0.00    1.00
  C12                  CONDUIT     1.104     0  00:05      0.52    9.51    1.00
  C13                  CONDUIT     0.522     0  00:05      0.24    4.54    1.00
  C14                  CONDUIT     3.084     0  00:05      1.44   24.50    1.00
  C15                  CONDUIT     0.173     0  00:05      0.08    1.37    1.00
  C16                  CONDUIT     4.285     0  00:05      2.00   37.61    1.00
  C17                  CONDUIT     2.542     0  00:05      1.19   22.43    1.00
  C18                  CONDUIT     0.000     0  00:00      0.00    0.00    1.00
  C19                  CONDUIT     0.099     0  00:05      0.05    0.79    1.00
  C20                  CONDUIT     2.551     0  00:05      1.19   22.71    1.00
  C21                  CONDUIT     0.000     0  00:05      0.00    0.00    1.00
  C22                  CONDUIT     0.442     0  00:05      0.21    3.49    1.00
  C47                  CONDUIT     0.924     0  00:05      0.43    9.50    1.00
  Cout                 CONDUIT     7.968     0  00:05      3.85   62.92    0.93
  
  
  ***************************
  Flow Classification Summary
  ***************************
  
  -------------------------------------------------------------------------------------
                      Adjusted    ---------- Fraction of Time in Flow Class ---------- 
                       /Actual         Up    Down  Sub   Sup   Up    Down  Norm  Inlet 
  Conduit               Length    Dry  Dry   Dry   Crit  Crit  Crit  Crit  Ltd   Ctrl  
  -------------------------------------------------------------------------------------
  C23                     1.00   0.00  0.00  0.00  1.00  0.00  0.00  0.00  0.00  0.00
  C24                     1.00   0.00  0.00  0.00  1.00  0.00  0.00  0.00  0.00  0.00
  C25                     1.00   0.00  0.00  0.00  1.00  0.00  0.00  0.00  0.00  0.00
  C26                     1.00   0.00  0.00  0.00  1.00  0.00  0.00  0.00  0.00  0.00
  C27                     1.00   0.00  0.00  0.00  1.00  0.00  0.00  0.00  0.00  0.00
  C28                     1.00   0.00  0.00  0.00  1.00  0.00  0.00  0.00  0.00  0.00
  C29                     1.00   0.00  0.00  0.00  1.00  0.00  0.00  0.00  0.00  0.00
  C30                     1.00   0.00  0.00  0.00  1.00  0.00  0.00  0.00  0.00  0.00
  C31                     1.00   0.00  0.00  0.00  1.00  0.00  0.00  0.00  0.00  0.00
  C32                     1.00   0.00  0.00  0.00  1.00  0.00  0.00  0.00  0.00  0.00
  C33                     1.00   0.00  0.00  0.00  1.00  0.00  0.00  0.00  0.00  0.00
  C34                     1.00   0.00  0.00  0.00  1.00  0.00  0.00  0.00  0.00  0.00
  C35                     1.00   0.00  0.00  0.00  1.00  0.00  0.00  0.00  0.00  0.00
  C36                     1.00   0.00  0.00  0.00  1.00  0.00  0.00  0.00  0.00  0.00
  C37                     1.00   0.00  0.00  0.00  1.00  0.00  0.00  0.00  0.00  0.00
  C38                     1.00   0.00  0.00  0.00  1.00  0.00  0.00  0.00  0.00  0.00
  C39                     1.00   0.00  0.00  0.00  1.00  0.00  0.00  0.00  0.00  0.00
  C40                     1.00   0.00  0.00  0.00  1.00  0.00  0.00  0.00  0.00  0.00
  C41                     1.00   0.00  0.00  0.00  1.00  0.00  0.00  0.00  0.00  0.00
  C43                     1.00   0.00  0.00  0.00  1.00  0.00  0.00  0.00  0.00  0.00
  C44                     1.00   0.00  0.00  0.00  1.00  0.00  0.00  0.00  0.00  0.00
  C45                     1.00   0.00  0.00  0.00  1.00  0.00  0.00  0.00  0.00  0.00
  C46                     1.00   0.00  0.00  0.00  1.00  0.00  0.00  0.00  0.00  0.00
  C48                     1.00   0.00  0.00  0.00  1.00  0.00  0.00  0.00  0.00  0.00
  C42                     1.00   0.00  0.00  0.00  1.00  0.00  0.00  0.00  0.00  0.00
  C50                     1.00   0.00  0.00  0.00  1.00  0.00  0.00  0.00  0.00  0.00
  C49                     1.00   0.00  0.00  0.00  1.00  0.00  0.00  0.00  0.00  0.00
  C01                     1.00   0.00  0.00  0.00  1.00  0.00  0.00  0.00  0.00  0.00
  C02                     1.00   0.00  0.00  0.00  1.00  0.00  0.00  0.00  0.00  0.00
  C03                     1.00   0.00  0.00  0.00  1.00  0.00  0.00  0.00  0.00  0.00
  C04                     1.00   0.00  0.00  0.00  1.00  0.00  0.00  0.00  0.00  0.00
  C05                     1.00   0.00  0.00  0.00  1.00  0.00  0.00  0.00  0.00  0.00
  C06                     1.00   0.00  0.00  0.00  1.00  0.00  0.00  0.00  0.00  0.00
  C07                     1.00   0.00  0.00  0.00  1.00  0.00  0.00  0.00  0.00  0.00
  C08                     1.00   0.00  0.00  0.00  1.00  0.00  0.00  0.00  0.00  0.00
  C09                     1.00   0.00  0.00  0.00  1.00  0.00  0.00  0.00  0.00  0.00
  C10                     1.00   0.00  0.00  0.00  1.00  0.00  0.00  0.00  0.00  0.00
  C11                     1.00   0.00  0.00  0.00  1.00  0.00  0.00  0.00  0.00  0.00
  C12                     1.00   0.00  0.00  0.00  1.00  0.00  0.00  0.00  0.00  0.00
  C13                     1.00   0.00  0.00  0.00  1.00  0.00  0.00  0.00  0.00  0.00
  C14                     1.00   0.00  0.00  0.00  1.00  0.00  0.00  0.00  0.00  0.00
  C15                     1.00   0.00  0.00  0.00  1.00  0.00  0.00  0.00  0.00  0.00
  C16                     1.00   0.00  0.00  0.00  1.00  0.00  0.00  0.00  0.00  0.00
  C17                     1.00   0.00  0.00  0.00  1.00  0.00  0.00  0.00  0.00  0.00
  C18                     1.00   0.00  0.00  0.00  1.00  0.00  0.00  0.00  0.00  0.00
  C19                     1.00   0.00  0.00  0.00  1.00  0.00  0.00  0.00  0.00  0.00
  C20                     1.00   0.00  0.00  0.00  1.00  0.00  0.00  0.00  0.00  0.00
  C21                     1.00   0.00  0.00  0.00  1.00  0.00  0.00  0.00  0.00  0.00
  C22                     1.00   0.00  0.00  0.00  1.00  0.00  0.00  0.00  0.00  0.00
  C47                     1.00   0.00  0.00  0.00  1.00  0.00  0.00  0.00  0.00  0.00
  Cout                    1.00   0.00  0.00  0.00  1.00  0.00  0.00  0.00  0.00  0.00
  
  
  *************************
  Conduit Surcharge Summary
  *************************
  
  ----------------------------------------------------------------------------
                                                           Hours        Hours 
                         --------- Hours Full --------   Above Full   Capacity
  Conduit                Both Ends  Upstream  Dnstream   Normal Flow   Limited
  ----------------------------------------------------------------------------
  C23                         1.67      1.67      1.67      0.01         0.01
  C24                         1.67      1.67      1.67      0.92         0.01
  C25                         1.67      1.67      1.67      0.01         0.01
  C26                         1.67      1.67      1.67      0.79         0.01
  C27                         1.67      1.67      1.67      0.01         0.01
  C28                         1.67      1.67      1.67      0.79         0.01
  C29                         1.67      1.67      1.67      0.48         0.01
  C30                         1.67      1.67      1.67      0.93         0.01
  C31                         1.67      1.67      1.67      0.86         0.01
  C32                         1.67      1.67      1.67      0.78         0.01
  C33                         1.67      1.67      1.67      0.71         0.01
  C34                         1.67      1.67      1.67      0.85         0.01
  C35                         1.67      1.67      1.67      0.01         0.01
  C36                         1.67      1.67      1.67      0.97         0.01
  C37                         1.67      1.67      1.67      0.72         0.01
  C38                         1.67      1.67      1.67      0.78         0.01
  C39                         1.67      1.67      1.67      0.73         0.01
  C40                         1.67      1.67      1.67      0.01         0.01
  C41                         1.67      1.67      1.67      0.01         0.01
  C43                         1.67      1.67      1.67      0.01         0.01
  C44                         1.67      1.67      1.67      0.86         0.01
  C45                         1.67      1.67      1.67      1.01         0.01
  C46                         1.67      1.67      1.67      0.96         0.01
  C48                         1.67      1.67      1.67      0.01         0.01
  C42                         1.67      1.67      1.67      0.88         0.01
  C50                         1.67      1.67      1.67      0.98         0.01
  C49                         1.67      1.67      1.67      0.92         0.01
  C01                         1.67      1.67      1.67      0.01         0.01
  C02                         1.67      1.67      1.67      0.01         0.01
  C03                         1.67      1.67      1.67      0.85         0.01
  C04                         1.67      1.67      1.67      0.88         0.01
  C05                         1.67      1.67      1.67      0.15         0.01
  C06                         1.67      1.67      1.67      0.01         0.01
  C07                         1.67      1.67      1.67      0.01         0.01
  C08                         1.67      1.67      1.67      0.01         0.01
  C09                         1.67      1.67      1.67      0.93         0.01
  C10                         1.67      1.67      1.67      0.86         0.01
  C11                         1.67      1.67      1.67      0.01         0.01
  C12                         1.67      1.67      1.67      0.94         0.01
  C13                         1.67      1.67      1.67      0.83         0.01
  C14                         1.67      1.67      1.67      0.93         0.01
  C15                         1.67      1.67      1.67      0.32         0.01
  C16                         1.67      1.67      1.67      1.03         0.01
  C17                         1.67      1.67      1.67      1.02         0.01
  C18                         1.67      1.67      1.67      0.01         0.01
  C19                         1.67      1.67      1.67      0.01         0.01
  C20                         1.67      1.67      1.67      1.02         0.01
  C21                         1.67      1.67      1.67      0.01         0.01
  C22                         1.67      1.67      1.67      0.70         0.01
  C47                         1.67      1.67      1.67      1.10         0.01
  Cout                        0.01      1.67      0.01      1.67         0.01
  
  
  ***************
  Pumping Summary
  ***************
  
  ---------------------------------------------------------------------------------------------------------
                                                  Min       Avg       Max     Total     Power    % Time Off
                        Percent   Number of      Flow      Flow      Flow    Volume     Usage    Pump Curve
  Pump                 Utilized   Start-Ups       CMS       CMS       CMS  10^6 ltr     Kw-hr    Low   High
  ---------------------------------------------------------------------------------------------------------
  P1                       0.00           0      0.00      0.00      0.00     0.000      0.00    0.0    0.0
  

  Analysis begun on:  Mon Nov 18 16:46:03 2024
  Analysis ended on:  Mon Nov 18 16:46:03 2024
  Total elapsed time: < 1 sec