
  EPA STORM WATER MANAGEMENT MODEL - VERSION 5.2 (Build 5.2.4)
  PYSWMM TOOLKIT API - VERSION v1.0 (2023-11-27)
  ------------------------------------------------------------

  WARNING 04: minimum elevation drop used for Conduit C23
  WARNING 04: minimum elevation drop used for Conduit C24
  WARNING 04: minimum elevation drop used for Conduit C25
  WARNING 04: minimum elevation drop used for Conduit C26
  WARNING 04: minimum elevation drop used for Conduit C27
  WARNING 04: minimum elevation drop used for Conduit C28
  WARNING 04: minimum elevation drop used for Conduit C29
  WARNING 04: minimum elevation drop used for Conduit C30
  WARNING 04: minimum elevation drop used for Conduit C31
  WARNING 04: minimum elevation drop used for Conduit C32
  WARNING 04: minimum elevation drop used for Conduit C33
  WARNING 04: minimum elevation drop used for Conduit C34
  WARNING 04: minimum elevation drop used for Conduit C35
  WARNING 04: minimum elevation drop used for Conduit C36
  WARNING 04: minimum elevation drop used for Conduit C37
  WARNING 04: minimum elevation drop used for Conduit C38
  WARNING 04: minimum elevation drop used for Conduit C39
  WARNING 04: minimum elevation drop used for Conduit C40
  WARNING 04: minimum elevation drop used for Conduit C41
  WARNING 04: minimum elevation drop used for Conduit C43
  WARNING 04: minimum elevation drop used for Conduit C44
  WARNING 04: minimum elevation drop used for Conduit C45
  WARNING 04: minimum elevation drop used for Conduit C46
  WARNING 04: minimum elevation drop used for Conduit C48
  WARNING 04: minimum elevation drop used for Conduit C42
  WARNING 04: minimum elevation drop used for Conduit C50
  WARNING 04: minimum elevation drop used for Conduit C49
  WARNING 04: minimum elevation drop used for Conduit C01
  WARNING 04: minimum elevation drop used for Conduit C02
  WARNING 04: minimum elevation drop used for Conduit C03
  WARNING 04: minimum elevation drop used for Conduit C04
  WARNING 04: minimum elevation drop used for Conduit C05
  WARNING 04: minimum elevation drop used for Conduit C06
  WARNING 04: minimum elevation drop used for Conduit C07
  WARNING 04: minimum elevation drop used for Conduit C08
  WARNING 04: minimum elevation drop used for Conduit C09
  WARNING 04: minimum elevation drop used for Conduit C10
  WARNING 04: minimum elevation drop used for Conduit C11
  WARNING 04: minimum elevation drop used for Conduit C12
  WARNING 04: minimum elevation drop used for Conduit C13
  WARNING 04: minimum elevation drop used for Conduit C14
  WARNING 04: minimum elevation drop used for Conduit C15
  WARNING 04: minimum elevation drop used for Conduit C16
  WARNING 04: minimum elevation drop used for Conduit C17
  WARNING 04: minimum elevation drop used for Conduit C18
  WARNING 04: minimum elevation drop used for Conduit C19
  WARNING 04: minimum elevation drop used for Conduit C20
  WARNING 04: minimum elevation drop used for Conduit C21
  WARNING 04: minimum elevation drop used for Conduit C22
  WARNING 04: minimum elevation drop used for Conduit C47
  WARNING 04: minimum elevation drop used for Conduit Cout
  
  ****************
  Analysis Options
  ****************
  Flow Units ............... CMS
  Process Models:
    Rainfall/Runoff ........ YES
    RDII ................... NO
    Snowmelt ............... NO
    Groundwater ............ NO
    Flow Routing ........... YES
    Ponding Allowed ........ NO
    Water Quality .......... NO
  Infiltration Method ...... HORTON
  Flow Routing Method ...... DYNWAVE
  Surcharge Method ......... EXTRAN
  Starting Date ............ 11/17/2022 12:00:00
  Ending Date .............. 11/17/2022 12:40:00
  Antecedent Dry Days ...... 0.0
  Report Time Step ......... 00:10:00
  Wet Time Step ............ 00:05:00
  Dry Time Step ............ 01:00:00
  Routing Time Step ........ 300.00 sec
  Variable Time Step ....... YES
  Maximum Trials ........... 8
  Number of Threads ........ 1
  Head Tolerance ........... 0.001524 m
  
  
  *********************
  Rainfall File Summary
  *********************
  Station    First        Last         Recording   Periods    Periods    Periods
  ID         Date         Date         Frequency  w/Precip    Missing    Malfunc.
  -------------------------------------------------------------------------------
  201        11/17/2022   11/17/2022      10 min         5          0          0

  
  
  **************************        Volume         Depth
  Runoff Quantity Continuity     hectare-m            mm
  **************************     ---------       -------
  Total Precipitation ......       126.995      1270.000
  Evaporation Loss .........         0.000         0.000
  Infiltration Loss ........         0.000         0.000
  Surface Runoff ...........       118.660      1186.647
  Final Storage ............        11.476       114.763
  Continuity Error (%) .....        -2.473
  
  
  **************************        Volume        Volume
  Flow Routing Continuity        hectare-m      10^6 ltr
  **************************     ---------     ---------
  Dry Weather Inflow .......         0.000         0.000
  Wet Weather Inflow .......       103.763      1037.639
  Groundwater Inflow .......         0.000         0.000
  RDII Inflow ..............         0.000         0.000
  External Inflow ..........         0.000         0.000
  External Outflow .........         1.664        16.642
  Flooding Loss ............        99.621       996.218
  Evaporation Loss .........         0.000         0.000
  Exfiltration Loss ........         0.000         0.000
  Initial Stored Volume ....         0.046         0.463
  Final Stored Volume ......         1.883        18.831
  Continuity Error (%) .....         0.618
  
  
  *************************
  Highest Continuity Errors
  *************************
  Node J30 (8.81%)
  Node J18 (6.97%)
  Node J3 (-5.79%)
  Node J24 (4.28%)
  Node J28 (4.08%)
  
  
  ***************************
  Time-Step Critical Elements
  ***************************
  Link Cout (98.69%)
  
  
  ********************************
  Highest Flow Instability Indexes
  ********************************
  Link C25 (2)
  Link C31 (2)
  Link C32 (2)
  Link C33 (2)
  Link C34 (2)
  
  
  *********************************
  Most Frequent Nonconverging Nodes
  *********************************
  Node J13 (0.65%)
  Node J2 (0.65%)
  Node J3 (0.65%)
  Node J9 (0.65%)
  Node J18 (0.65%)
  
  
  *************************
  Routing Time Step Summary
  *************************
  Minimum Time Step           :     4.93 sec
  Average Time Step           :    15.69 sec
  Maximum Time Step           :   300.00 sec
  % of Time in Steady State   :     0.00
  Average Iterations per Step :     2.05
  % of Steps Not Converging   :     0.65
  Time Step Frequencies       :
     300.000 - 83.462 sec      :     0.66 %
     83.462 - 23.220 sec      :     0.00 %
     23.220 -  6.460 sec      :    98.68 %
      6.460 -  1.797 sec      :     0.66 %
      1.797 -  0.500 sec      :     0.00 %
  
  
  ***************************
  Subcatchment Runoff Summary
  ***************************
  
  ------------------------------------------------------------------------------------------------------------------------------
                            Total      Total      Total      Total     Imperv       Perv      Total       Total     Peak  Runoff
                           Precip      Runon       Evap      Infil     Runoff     Runoff     Runoff      Runoff   Runoff   Coeff
  Subcatchment                 mm         mm         mm         mm         mm         mm         mm    10^6 ltr      CMS
  ------------------------------------------------------------------------------------------------------------------------------
  S1                      1270.00       0.00       0.00       0.00      12.57    1257.43    1270.00      320.37   245.64   1.000
  S2                      1270.00       0.00       0.00       0.00      11.56    1256.45    1268.00        9.85     7.57   0.998
  S3                      1270.00       0.00       0.00       0.00      11.56    1258.44    1270.00        2.63     2.02   1.000
  S4                      1270.00       0.00       0.00       0.00      11.56    1258.44    1270.00        2.60     2.00   1.000
  S5                      1270.00       0.00       0.00       0.00      11.56    1258.44    1270.00        3.80     2.91   1.000
  S6                      1270.00       0.00       0.00       0.00      11.56    1258.44    1270.00       10.46     8.02   1.000
  S7                      1270.00       0.00       0.00       0.00      11.56    1258.44    1270.00        1.97     1.51   1.000
  S8                      1270.00       0.00       0.00       0.00      11.56    1258.44    1270.00        6.18     4.74   1.000
  S9                      1270.00       0.00       0.00       0.00      11.56    1258.44    1270.00        7.65     5.86   1.000
  S10                     1270.00       0.00       0.00       0.00       0.00    1258.44    1258.44        1.77     1.36   0.991
  S11                     1270.00       0.00       0.00       0.00      11.56    1193.31    1204.86       17.63    14.20   0.949
  S12                     1270.00       0.00       0.00       0.00      11.56    1258.44    1270.00       11.02     8.45   1.000
  S13                     1270.00       0.00       0.00       0.00       0.00    1258.44    1258.44       10.62     8.14   0.991
  S14                     1270.00       0.00       0.00       0.00      10.67    1259.33    1270.00       10.20     7.82   1.000
  S15                     1270.00       0.00       0.00       0.00      10.67    1259.33    1270.00        9.53     7.30   1.000
  S16                     1270.00       0.00       0.00       0.00       9.78    1246.48    1256.26       22.19    17.20   0.989
  S17                     1270.00       0.00       0.00       0.00       9.78    1094.35    1104.13       37.60    32.19   0.869
  S18                     1270.00       0.00       0.00       0.00       9.78    1260.16    1269.94        1.64     1.26   1.000
  S19                     1270.00       0.00       0.00       0.00       9.78       0.00       9.78        0.02     0.02   0.008
  S20                     1270.00       0.00       0.00       0.00       9.78    1260.17    1269.95        1.30     0.99   1.000
  S21                     1270.00       0.00       0.00       0.00       9.78    1224.39    1234.17       20.46    16.13   0.972
  S22                     1270.00       0.00       0.00       0.00       9.78    1260.18    1269.96        0.42     0.32   1.000
  S23                     1270.00       0.00       0.00       0.00       9.78    1260.22    1270.00        0.50     0.38   1.000
  S24                     1270.00       0.00       0.00       0.00       9.78    1260.22    1270.00        0.62     0.48   1.000
  S25                     1270.00       0.00       0.00       0.00       9.78    1260.22    1270.00        0.75     0.57   1.000
  S26                     1270.00       0.00       0.00       0.00       9.78    1260.22    1270.00        0.88     0.67   1.000
  S27                     1270.00       0.00       0.00       0.00       9.78    1259.95    1269.73       10.55     8.09   1.000
  S28                     1270.00       0.00       0.00       0.00       9.78    1228.41    1238.19       11.00     8.64   0.975
  S29                     1270.00       0.00       0.00       0.00       9.78    1260.13    1269.91        1.17     0.90   1.000
  S30                     1270.00       0.00       0.00       0.00       9.78    1046.70    1056.48       67.30    59.03   0.832
  S31                     1270.00       0.00       0.00       0.00      10.16    1259.84    1270.00       17.21    13.19   1.000
  S32                     1270.00       0.00       0.00       0.00      10.16    1259.84    1270.00        5.30     4.06   1.000
  S33                     1270.00       0.00       0.00       0.00      11.94    1258.06    1270.00        3.95     3.03   1.000
  S34                     1270.00       0.00       0.00       0.00      11.94    1258.06    1270.00        4.18     3.20   1.000
  S35                     1270.00       0.00       0.00       0.00      11.56    1258.44    1270.00        5.11     3.91   1.000
  S36                     1270.00       0.00       0.00       0.00      11.56    1258.44    1270.00        2.10     1.61   1.000
  S37                     1270.00       0.00       0.00       0.00      11.56    1258.44    1270.00        4.57     3.51   1.000
  S38                     1270.00       0.00       0.00       0.00      11.56    1258.44    1270.00        0.20     0.16   1.000
  S39                     1270.00       0.00       0.00       0.00      11.56    1258.44    1270.00        5.21     3.99   1.000
  S40                     1270.00       0.00       0.00       0.00      11.56    1258.44    1270.00        1.79     1.37   1.000
  S41                     1270.00       0.00       0.00       0.00      11.56    1258.44    1270.00        2.88     2.21   1.000
  S42                     1270.00       0.00       0.00       0.00      11.56    1258.44    1270.00        4.01     3.08   1.000
  S43                     1270.00       0.00       0.00       0.00      11.56    1258.44    1270.00        9.14     7.01   1.000
  S44                     1270.00       0.00       0.00       0.00      11.56    1258.44    1270.00        6.63     5.08   1.000
  S45                     1270.00       0.00       0.00       0.00      11.56    1258.44    1270.00        0.67     0.52   1.000
  S46                     1270.00       0.00       0.00       0.00      11.56    1258.44    1270.00        6.15     4.71   1.000
  S47                     1270.00       0.00       0.00       0.00      11.56    1258.44    1270.00       12.42     9.52   1.000
  S48                     1270.00       0.00       0.00       0.00      11.56    1258.44    1270.00       14.35    11.00   1.000
  S49                     1270.00       0.00       0.00       0.00      11.56    1258.44    1270.00        8.72     6.69   1.000
  S50                     1270.00       0.00       0.00       0.00      11.56    1258.44    1270.00        7.19     5.51   1.000
  S51                     1270.00       0.00       0.00       0.00      11.56    1258.44    1270.00        4.24     3.25   1.000
  S52                     1270.00       0.00       0.00       0.00      11.56    1258.44    1270.00       11.24     8.62   1.000
  S53                     1270.00       0.00       0.00       0.00      11.56    1228.29    1239.84       15.10    11.86   0.976
  S54                     1270.00       0.00       0.00       0.00      11.56    1254.66    1266.22        5.79     4.45   0.997
  S55                     1270.00       0.00       0.00       0.00      11.56    1258.44    1270.00        0.48     0.37   1.000
  S56                     1270.00       0.00       0.00       0.00      11.56    1258.53    1270.08        0.48     0.37   1.000
  S57                     1270.00       0.00       0.00       0.00      11.56    1258.44    1270.00        6.57     5.03   1.000
  S58                     1270.00       0.00       0.00       0.00      11.56    1258.44    1270.00        8.43     6.47   1.000
  S59                     1270.00       0.00       0.00       0.00      11.56    1258.44    1270.00        8.19     6.28   1.000
  S60                     1270.00       0.00       0.00       0.00       9.78    1258.90    1268.68        4.99     3.83   0.999
  S61                     1270.00       0.00       0.00       0.00       9.78       0.00       9.78        0.03     0.02   0.008
  S62                     1270.00       0.00       0.00       0.00       9.78    1013.17    1022.95       54.82    48.86   0.805
  S63                     1270.00       0.00       0.00       0.00       9.78    1260.22    1270.00       11.94     9.15   1.000
  S64                     1270.00       0.00       0.00       0.00       9.78    1260.22    1270.00       32.32    24.78   1.000
  S65                     1270.00       0.00       0.00       0.00       9.78    1260.22    1270.00        5.16     3.95   1.000
  S66                     1270.00       0.00       0.00       0.00       9.78    1260.22    1270.00        8.32     6.38   1.000
  S67                     1270.00       0.00       0.00       0.00       9.78    1260.22    1270.00       15.54    11.92   1.000
  S68                     1270.00       0.00       0.00       0.00       9.78    1260.22    1270.00       18.22    13.97   1.000
  S69                     1270.00       0.00       0.00       0.00       9.78       0.00       9.78        0.24     0.19   0.008
  S70                     1270.00       0.00       0.00       0.00       9.78    1222.53    1232.31       32.25    25.46   0.970
  S71                     1270.00       0.00       0.00       0.00      11.56    1258.44    1270.00       18.68    14.32   1.000
  S72                     1270.00       0.00       0.00       0.00       9.78    1249.50    1259.28        6.25     4.83   0.992
  S73                     1270.00       0.00       0.00       0.00       9.78    1260.22    1270.00       26.62    20.41   1.000
  S74                     1270.00       0.00       0.00       0.00       9.78       0.00       9.78        0.06     0.05   0.008
  S75                     1270.00       0.00       0.00       0.00       9.78    1260.22    1270.00        0.85     0.65   1.000
  S76                     1270.00       0.00       0.00       0.00       9.78    1260.22    1270.00       16.78    12.86   1.000
  S77                     1270.00       0.00       0.00       0.00       9.78    1260.22    1270.00       13.58    10.41   1.000
  S78                     1270.00       0.00       0.00       0.00       9.78    1260.22    1270.00        9.84     7.55   1.000
  S79                     1270.00       0.00       0.00       0.00      11.56    1258.44    1270.00        8.62     6.61   1.000
  S80                     1270.00       0.00       0.00       0.00       9.78    1260.01    1269.79        3.50     2.69   1.000
  S81                     1270.00       0.00       0.00       0.00       9.78    1260.22    1270.00       14.36    11.01   1.000
  S82                     1270.00       0.00       0.00       0.00       9.78    1260.22    1270.00       14.02    10.75   1.000
  S83                     1270.00       0.00       0.00       0.00       9.78    1260.22    1270.00        9.02     6.91   1.000
  S84                     1270.00       0.00       0.00       0.00      11.56    1258.44    1270.00        5.89     4.52   1.000
  S85                     1270.00       0.00       0.00       0.00      11.56    1236.59    1248.15       15.43    12.03   0.983
  S86                     1270.00       0.00       0.00       0.00       0.00    1258.44    1258.44       14.56    11.16   0.991
  S87                     1270.00       0.00       0.00       0.00      11.56    1258.44    1270.00       15.77    12.09   1.000
  S88                     1270.00       0.00       0.00       0.00      11.56    1258.44    1270.00        2.84     2.18   1.000
  S89                     1270.00       0.00       0.00       0.00      11.56    1258.44    1270.00       12.84     9.84   1.000
  S90                     1270.00       0.00       0.00       0.00       0.00    1258.44    1258.44        6.18     4.74   0.991
  S91                     1270.00       0.00       0.00       0.00      11.56    1258.44    1270.00        2.10     1.61   1.000
  
  
  ******************
  Node Depth Summary
  ******************
  
  ---------------------------------------------------------------------------------
                                 Average  Maximum  Maximum  Time of Max    Reported
                                   Depth    Depth      HGL   Occurrence   Max Depth
  Node                 Type       Meters   Meters   Meters  days hr:min      Meters
  ---------------------------------------------------------------------------------
  J7                   JUNCTION     2.48     2.50     2.50     0  00:05        2.50
  J13                  JUNCTION     2.48     2.50     2.50     0  00:05        2.50
  J19                  JUNCTION     2.48     2.50     2.50     0  00:05        2.50
  J25                  JUNCTION     2.48     2.50     2.50     0  00:05        2.50
  J1                   JUNCTION     2.48     2.50     2.50     0  00:05        2.50
  J2                   JUNCTION     2.48     2.50     2.50     0  00:05        2.50
  J3                   JUNCTION     2.48     2.50     2.50     0  00:05        2.50
  J4                   JUNCTION     2.48     2.50     2.50     0  00:05        2.50
  J5                   JUNCTION     2.48     2.50     2.50     0  00:05        2.50
  J6                   JUNCTION     2.48     2.50     2.50     0  00:05        2.50
  J8                   JUNCTION     2.48     2.50     2.50     0  00:05        2.50
  J9                   JUNCTION     2.48     2.50     2.50     0  00:05        2.50
  J10                  JUNCTION     2.48     2.50     2.50     0  00:05        2.50
  J11                  JUNCTION     2.48     2.50     2.50     0  00:05        2.50
  J12                  JUNCTION     2.48     2.50     2.50     0  00:05        2.50
  J14                  JUNCTION     2.48     2.50     2.50     0  00:05        2.50
  J15                  JUNCTION     2.48     2.50     2.50     0  00:05        2.50
  J16                  JUNCTION     2.48     2.50     2.50     0  00:05        2.50
  J17                  JUNCTION     2.48     2.50     2.50     0  00:05        2.50
  J18                  JUNCTION     2.48     2.50     2.50     0  00:05        2.50
  J20                  JUNCTION     2.48     2.50     2.50     0  00:05        2.50
  J21                  JUNCTION     2.48     2.50     2.50     0  00:05        2.50
  J22                  JUNCTION     2.48     2.50     2.50     0  00:05        2.50
  J23                  JUNCTION     2.48     2.50     2.50     0  00:05        2.50
  J24                  JUNCTION     2.48     2.50     2.50     0  00:05        2.50
  J26                  JUNCTION     2.48     2.50     2.50     0  00:05        2.50
  J27                  JUNCTION     2.48     2.50     2.50     0  00:05        2.50
  J29                  JUNCTION     2.48     2.50     2.50     0  00:05        2.50
  J30                  JUNCTION     2.48     2.50     2.50     0  00:05        2.50
  J31                  JUNCTION     2.48     2.50     2.50     0  00:05        2.50
  J33                  JUNCTION     2.48     2.50     2.50     0  00:05        2.50
  J32                  JUNCTION     2.48     2.50     2.50     0  00:05        2.50
  J28                  JUNCTION     2.48     2.50     2.50     0  00:05        2.50
  OF                   OUTFALL      1.36     1.41     1.41     0  00:05        1.37
  
  
  *******************
  Node Inflow Summary
  *******************
  
  -------------------------------------------------------------------------------------------------
                                  Maximum  Maximum                  Lateral       Total        Flow
                                  Lateral    Total  Time of Max      Inflow      Inflow     Balance
                                   Inflow   Inflow   Occurrence      Volume      Volume       Error
  Node                 Type           CMS      CMS  days hr:min    10^6 ltr    10^6 ltr     Percent
  -------------------------------------------------------------------------------------------------
  J7                   JUNCTION    64.799   64.951     0  00:40        64.7        65.5       1.706
  J13                  JUNCTION     5.555    5.682     0  00:40         6.3         6.8       1.952
  J19                  JUNCTION   263.270  263.270     0  00:40         301         301       2.489
  J25                  JUNCTION    32.098   32.349     0  00:40        32.4        33.4       1.706
  J1                   JUNCTION    22.100   22.100     0  00:35        25.3        25.3       2.321
  J2                   JUNCTION    16.603   16.787     0  00:35          19        19.9       2.530
  J3                   JUNCTION     0.740    2.127     0  00:05       0.847         2.1      -5.476
  J4                   JUNCTION    48.075   48.237     0  00:35          55        55.7       2.339
  J5                   JUNCTION    39.749   39.899     0  00:35        45.5        46.1       2.295
  J6                   JUNCTION    17.392   17.392     0  00:40        19.9        19.9       2.041
  J8                   JUNCTION    26.759   26.759     0  00:35        30.6        30.6       2.511
  J9                   JUNCTION    12.030   12.449     0  00:40        13.5        15.4       1.810
  J10                  JUNCTION    17.956   17.956     0  00:40        20.6        20.6       2.587
  J11                  JUNCTION    19.291   19.425     0  00:35        22.1        22.5       2.633
  J12                  JUNCTION    20.410   20.587     0  00:35        23.4        24.2       2.698
  J14                  JUNCTION    17.294   17.294     0  00:40        19.8        19.8       2.709
  J15                  JUNCTION    24.743   24.784     0  00:40          28        28.1       2.187
  J16                  JUNCTION    14.324   14.657     0  00:35        16.4        17.8       2.465
  J17                  JUNCTION     0.186    1.949     0  00:05       0.213        1.83       3.251
  J18                  JUNCTION     0.652    1.448     0  00:05       0.747         2.1       7.494
  J20                  JUNCTION    48.320   48.320     0  00:40        54.4        54.4       2.524
  J21                  JUNCTION    15.963   15.963     0  00:40        18.3        18.3       2.709
  J22                  JUNCTION    32.752   32.752     0  00:40        36.5        36.5       2.024
  J23                  JUNCTION    17.193   17.495     0  00:40        19.4        20.9       2.785
  J24                  JUNCTION     2.267    2.421     0  00:35         2.6        2.98       4.472
  J26                  JUNCTION    14.100   14.201     0  00:35        16.1        16.4       1.983
  J27                  JUNCTION    12.367   12.801     0  00:35        14.1        15.8       3.228
  J29                  JUNCTION    20.284   20.666     0  00:35        23.2        25.4       3.174
  J30                  JUNCTION     0.000    2.349     0  00:05           0        1.93       9.665
  J31                  JUNCTION    58.826   58.974     0  00:40        57.7        58.4       1.380
  J33                  JUNCTION    19.958   19.958     0  00:40        22.8        22.8       2.121
  J32                  JUNCTION     9.105    9.496     0  00:35        10.4        12.8       3.429
  J28                  JUNCTION    14.558   15.132     0  00:35        16.7        20.1       4.252
  OF                   OUTFALL      0.000    7.967     0  00:05           0        16.6       0.000
  
  
  **********************
  Node Surcharge Summary
  **********************
  
  Surcharging occurs when water rises above the top of the highest conduit.
  ---------------------------------------------------------------------
                                               Max. Height   Min. Depth
                                   Hours       Above Crown    Below Rim
  Node                 Type      Surcharged         Meters       Meters
  ---------------------------------------------------------------------
  J7                   JUNCTION        0.67          0.850        0.000
  J13                  JUNCTION        0.67          0.850        0.000
  J19                  JUNCTION        0.67          0.850        0.000
  J25                  JUNCTION        0.67          0.850        0.000
  J1                   JUNCTION        0.67          0.850        0.000
  J2                   JUNCTION        0.67          0.850        0.000
  J3                   JUNCTION        0.67          0.850        0.000
  J4                   JUNCTION        0.67          0.850        0.000
  J5                   JUNCTION        0.67          0.850        0.000
  J6                   JUNCTION        0.67          0.850        0.000
  J8                   JUNCTION        0.67          0.850        0.000
  J9                   JUNCTION        0.67          0.850        0.000
  J10                  JUNCTION        0.67          0.850        0.000
  J11                  JUNCTION        0.67          0.850        0.000
  J12                  JUNCTION        0.67          0.850        0.000
  J14                  JUNCTION        0.67          0.850        0.000
  J15                  JUNCTION        0.67          0.850        0.000
  J16                  JUNCTION        0.67          0.850        0.000
  J17                  JUNCTION        0.67          0.850        0.000
  J18                  JUNCTION        0.67          0.850        0.000
  J20                  JUNCTION        0.67          0.850        0.000
  J21                  JUNCTION        0.67          0.850        0.000
  J22                  JUNCTION        0.67          0.850        0.000
  J23                  JUNCTION        0.67          0.850        0.000
  J24                  JUNCTION        0.67          0.850        0.000
  J26                  JUNCTION        0.67          0.850        0.000
  J27                  JUNCTION        0.67          0.850        0.000
  J29                  JUNCTION        0.67          0.850        0.000
  J30                  JUNCTION        0.67          0.850        0.000
  J31                  JUNCTION        0.67          0.850        0.000
  J33                  JUNCTION        0.67          0.850        0.000
  J32                  JUNCTION        0.67          0.850        0.000
  J28                  JUNCTION        0.67          0.850        0.000
  
  
  *********************
  Node Flooding Summary
  *********************
  
  Flooding refers to all water that overflows a node, whether it ponds or not.
  --------------------------------------------------------------------------
                                                             Total   Maximum
                                 Maximum   Time of Max       Flood    Ponded
                        Hours       Rate    Occurrence      Volume     Depth
  Node                 Flooded       CMS   days hr:min    10^6 ltr    Meters
  --------------------------------------------------------------------------
  J7                      0.67    64.695      0  00:40      65.328     0.000
  J13                     0.67     5.529      0  00:40       6.037     0.000
  J19                     0.67   255.916      0  00:40     284.424     0.000
  J25                     0.67    32.182      0  00:40      33.160     0.000
  J1                      0.67    21.843      0  00:40      24.051     0.000
  J2                      0.67    16.487      0  00:40      18.645     0.000
  J3                      0.56     0.611      0  00:40       0.423     0.000
  J4                      0.67    47.877      0  00:40      53.354     0.000
  J5                      0.67    39.305      0  00:40      43.259     0.000
  J6                      0.67    16.973      0  00:40      18.007     0.000
  J8                      0.67    26.605      0  00:40      29.833     0.000
  J9                      0.67    12.269      0  00:40      13.986     0.000
  J10                     0.67    17.834      0  00:40      20.087     0.000
  J11                     0.67    19.282      0  00:40      22.009     0.000
  J12                     0.67    20.421      0  00:35      23.492     0.000
  J14                     0.67    17.273      0  00:40      19.743     0.000
  J15                     0.67    24.487      0  00:40      26.687     0.000
  J16                     0.67    14.465      0  00:35      16.736     0.000
  J17                     0.67     0.756      0  00:05       0.535     0.000
  J18                     0.58     0.952      0  00:05       1.369     0.000
  J20                     0.67    48.304      0  00:40      54.414     0.000
  J21                     0.67    15.944      0  00:40      18.226     0.000
  J22                     0.67    32.432      0  00:40      34.969     0.000
  J23                     0.67    17.379      0  00:40      20.533     0.000
  J24                     0.58     2.421      0  00:35       2.870     0.000
  J26                     0.67    14.023      0  00:40      15.270     0.000
  J27                     0.67    12.800      0  00:35      15.833     0.000
  J29                     0.67    20.507      0  00:35      24.732     0.000
  J30                     0.67     2.305      0  00:05       1.928     0.000
  J31                     0.67    58.614      0  00:40      57.452     0.000
  J33                     0.67    19.786      0  00:40      21.629     0.000
  J32                     0.67     9.305      0  00:35      11.734     0.000
  J28                     0.67    15.130      0  00:35      20.112     0.000
  
  
  ***********************
  Outfall Loading Summary
  ***********************
  
  -----------------------------------------------------------
                         Flow       Avg       Max       Total
                         Freq      Flow      Flow      Volume
  Outfall Node           Pcnt       CMS       CMS    10^6 ltr
  -----------------------------------------------------------
  OF                   100.00     7.312     7.967      16.642
  -----------------------------------------------------------
  System               100.00     7.312     7.967      16.642
  
  
  ********************
  Link Flow Summary
  ********************
  
  -----------------------------------------------------------------------------
                                 Maximum  Time of Max   Maximum    Max/    Max/
                                  |Flow|   Occurrence   |Veloc|    Full    Full
  Link                 Type          CMS  days hr:min     m/sec    Flow   Depth
  -----------------------------------------------------------------------------
  P1                   PUMP        0.000     0  00:00                          
  C23                  CONDUIT     0.558     0  00:05      0.26    4.86    1.00
  C24                  CONDUIT     0.000     0  00:05      0.00    0.00    1.00
  C25                  CONDUIT     0.348     0  00:05      0.16    2.78    1.00
  C26                  CONDUIT     0.000     0  00:05      0.00    0.00    1.00
  C27                  CONDUIT     0.833     0  00:05      0.39    6.85    1.00
  C28                  CONDUIT     2.388     0  00:05      1.12   16.46    1.00
  C29                  CONDUIT     1.130     0  00:05      0.53    7.96    1.00
  C30                  CONDUIT     0.000     0  00:05      0.00    0.00    1.00
  C31                  CONDUIT     0.344     0  00:05      0.16    3.01    1.00
  C32                  CONDUIT     1.932     0  00:05      0.90   12.49    1.00
  C33                  CONDUIT     1.885     0  00:05      0.88   11.03    1.00
  C34                  CONDUIT     0.613     0  00:05      0.29    4.88    1.00
  C35                  CONDUIT     0.472     0  00:05      0.22    5.02    1.00
  C36                  CONDUIT     0.893     0  00:05      0.42    8.42    1.00
  C37                  CONDUIT     0.943     0  00:05      0.44    6.47    1.00
  C38                  CONDUIT     0.328     0  00:05      0.15    2.29    1.00
  C39                  CONDUIT     0.812     0  00:05      0.38    5.15    1.00
  C40                  CONDUIT     0.187     0  00:05      0.09    1.33    1.00
  C41                  CONDUIT     1.686     0  00:05      0.79   13.08    1.00
  C43                  CONDUIT     1.768     0  00:05      0.83   13.48    1.00
  C44                  CONDUIT     1.465     0  00:05      0.69   12.51    1.00
  C45                  CONDUIT     1.193     0  00:05      0.56   10.23    1.00
  C46                  CONDUIT     1.156     0  00:05      0.54    9.58    1.00
  C48                  CONDUIT     0.000     0  00:05      0.00    0.00    1.00
  C42                  CONDUIT     0.000     0  00:05      0.00    0.00    1.00
  C50                  CONDUIT     1.395     0  00:05      0.65   13.47    1.00
  C49                  CONDUIT     0.557     0  00:05      0.26    4.86    1.00
  C01                  CONDUIT     0.000     0  00:00      0.00    0.00    1.00
  C02                  CONDUIT     0.000     0  00:00      0.00    0.00    1.00
  C03                  CONDUIT     0.959     0  00:05      0.45    7.66    1.00
  C04                  CONDUIT     0.285     0  00:05      0.13    2.24    1.00
  C05                  CONDUIT     0.130     0  00:05      0.06    1.04    1.00
  C06                  CONDUIT     0.000     0  00:00      0.00    0.00    1.00
  C07                  CONDUIT     0.021     0  00:05      0.01    0.19    1.00
  C08                  CONDUIT     0.025     0  00:05      0.01    0.20    1.00
  C09                  CONDUIT     0.644     0  00:05      0.30    5.64    1.00
  C10                  CONDUIT     0.727     0  00:05      0.34    5.80    1.00
  C11                  CONDUIT     0.000     0  00:00      0.00    0.00    1.00
  C12                  CONDUIT     0.580     0  00:05      0.27    5.00    1.00
  C13                  CONDUIT     0.508     0  00:05      0.24    4.42    1.00
  C14                  CONDUIT     1.458     0  00:05      0.68   11.58    1.00
  C15                  CONDUIT     0.583     0  00:05      0.27    4.64    1.00
  C16                  CONDUIT     0.107     0  00:05      0.05    0.94    1.00
  C17                  CONDUIT     0.430     0  00:05      0.20    3.79    1.00
  C18                  CONDUIT     0.000     0  00:00      0.00    0.00    1.00
  C19                  CONDUIT     0.773     0  00:05      0.36    6.14    1.00
  C20                  CONDUIT     0.655     0  00:05      0.31    5.83    1.00
  C21                  CONDUIT     0.382     0  00:05      0.18    3.61    1.00
  C22                  CONDUIT     0.000     0  00:05      0.00    0.00    1.00
  C47                  CONDUIT     0.674     0  00:05      0.32    6.93    1.00
  Cout                 CONDUIT     7.967     0  00:05      3.85   62.91    0.93
  
  
  ***************************
  Flow Classification Summary
  ***************************
  
  -------------------------------------------------------------------------------------
                      Adjusted    ---------- Fraction of Time in Flow Class ---------- 
                       /Actual         Up    Down  Sub   Sup   Up    Down  Norm  Inlet 
  Conduit               Length    Dry  Dry   Dry   Crit  Crit  Crit  Crit  Ltd   Ctrl  
  -------------------------------------------------------------------------------------
  C23                     1.00   0.00  0.00  0.00  1.00  0.00  0.00  0.00  0.00  0.00
  C24                     1.00   0.00  0.00  0.00  1.00  0.00  0.00  0.00  0.00  0.00
  C25                     1.00   0.00  0.00  0.00  1.00  0.00  0.00  0.00  0.00  0.00
  C26                     1.00   0.00  0.00  0.00  1.00  0.00  0.00  0.00  0.00  0.00
  C27                     1.00   0.00  0.00  0.00  1.00  0.00  0.00  0.00  0.00  0.00
  C28                     1.00   0.00  0.00  0.00  1.00  0.00  0.00  0.00  0.00  0.00
  C29                     1.00   0.00  0.00  0.00  1.00  0.00  0.00  0.00  0.00  0.00
  C30                     1.00   0.00  0.00  0.00  1.00  0.00  0.00  0.00  0.00  0.00
  C31                     1.00   0.00  0.00  0.00  1.00  0.00  0.00  0.00  0.00  0.00
  C32                     1.00   0.00  0.00  0.00  1.00  0.00  0.00  0.00  0.00  0.00
  C33                     1.00   0.00  0.00  0.00  1.00  0.00  0.00  0.00  0.00  0.00
  C34                     1.00   0.00  0.00  0.00  1.00  0.00  0.00  0.00  0.00  0.00
  C35                     1.00   0.00  0.00  0.00  1.00  0.00  0.00  0.00  0.00  0.00
  C36                     1.00   0.00  0.00  0.00  1.00  0.00  0.00  0.00  0.00  0.00
  C37                     1.00   0.00  0.00  0.00  1.00  0.00  0.00  0.00  0.00  0.00
  C38                     1.00   0.00  0.00  0.00  1.00  0.00  0.00  0.00  0.00  0.00
  C39                     1.00   0.00  0.00  0.00  1.00  0.00  0.00  0.00  0.00  0.00
  C40                     1.00   0.00  0.00  0.00  1.00  0.00  0.00  0.00  0.00  0.00
  C41                     1.00   0.00  0.00  0.00  1.00  0.00  0.00  0.00  0.00  0.00
  C43                     1.00   0.00  0.00  0.00  1.00  0.00  0.00  0.00  0.00  0.00
  C44                     1.00   0.00  0.00  0.00  1.00  0.00  0.00  0.00  0.00  0.00
  C45                     1.00   0.00  0.00  0.00  1.00  0.00  0.00  0.00  0.00  0.00
  C46                     1.00   0.00  0.00  0.00  1.00  0.00  0.00  0.00  0.00  0.00
  C48                     1.00   0.00  0.00  0.00  1.00  0.00  0.00  0.00  0.00  0.00
  C42                     1.00   0.00  0.00  0.00  1.00  0.00  0.00  0.00  0.00  0.00
  C50                     1.00   0.00  0.00  0.00  1.00  0.00  0.00  0.00  0.00  0.00
  C49                     1.00   0.00  0.00  0.00  1.00  0.00  0.00  0.00  0.00  0.00
  C01                     1.00   0.00  0.00  0.00  1.00  0.00  0.00  0.00  0.00  0.00
  C02                     1.00   0.00  0.00  0.00  1.00  0.00  0.00  0.00  0.00  0.00
  C03                     1.00   0.00  0.00  0.00  1.00  0.00  0.00  0.00  0.00  0.00
  C04                     1.00   0.00  0.00  0.00  1.00  0.00  0.00  0.00  0.00  0.00
  C05                     1.00   0.00  0.00  0.00  1.00  0.00  0.00  0.00  0.00  0.00
  C06                     1.00   0.00  0.00  0.00  1.00  0.00  0.00  0.00  0.00  0.00
  C07                     1.00   0.00  0.00  0.00  1.00  0.00  0.00  0.00  0.00  0.00
  C08                     1.00   0.00  0.00  0.00  1.00  0.00  0.00  0.00  0.00  0.00
  C09                     1.00   0.00  0.00  0.00  1.00  0.00  0.00  0.00  0.00  0.00
  C10                     1.00   0.00  0.00  0.00  1.00  0.00  0.00  0.00  0.00  0.00
  C11                     1.00   0.00  0.00  0.00  1.00  0.00  0.00  0.00  0.00  0.00
  C12                     1.00   0.00  0.00  0.00  1.00  0.00  0.00  0.00  0.00  0.00
  C13                     1.00   0.00  0.00  0.00  1.00  0.00  0.00  0.00  0.00  0.00
  C14                     1.00   0.00  0.00  0.00  1.00  0.00  0.00  0.00  0.00  0.00
  C15                     1.00   0.00  0.00  0.00  1.00  0.00  0.00  0.00  0.00  0.00
  C16                     1.00   0.00  0.00  0.00  1.00  0.00  0.00  0.00  0.00  0.00
  C17                     1.00   0.00  0.00  0.00  1.00  0.00  0.00  0.00  0.00  0.00
  C18                     1.00   0.00  0.00  0.00  1.00  0.00  0.00  0.00  0.00  0.00
  C19                     1.00   0.00  0.00  0.00  1.00  0.00  0.00  0.00  0.00  0.00
  C20                     1.00   0.00  0.00  0.00  1.00  0.00  0.00  0.00  0.00  0.00
  C21                     1.00   0.00  0.00  0.00  1.00  0.00  0.00  0.00  0.00  0.00
  C22                     1.00   0.00  0.00  0.00  1.00  0.00  0.00  0.00  0.00  0.00
  C47                     1.00   0.00  0.00  0.00  1.00  0.00  0.00  0.00  0.00  0.00
  Cout                    1.00   0.00  0.00  0.00  1.00  0.00  0.00  0.00  0.00  0.00
  
  
  *************************
  Conduit Surcharge Summary
  *************************
  
  ----------------------------------------------------------------------------
                                                           Hours        Hours 
                         --------- Hours Full --------   Above Full   Capacity
  Conduit                Both Ends  Upstream  Dnstream   Normal Flow   Limited
  ----------------------------------------------------------------------------
  C23                         0.67      0.67      0.67      0.67         0.01
  C24                         0.67      0.67      0.67      0.01         0.01
  C25                         0.67      0.67      0.67      0.64         0.01
  C26                         0.67      0.67      0.67      0.01         0.01
  C27                         0.67      0.67      0.67      0.67         0.01
  C28                         0.67      0.67      0.67      0.67         0.01
  C29                         0.67      0.67      0.67      0.67         0.01
  C30                         0.67      0.67      0.67      0.01         0.01
  C31                         0.67      0.67      0.67      0.67         0.01
  C32                         0.67      0.67      0.67      0.67         0.09
  C33                         0.67      0.67      0.67      0.67         0.01
  C34                         0.67      0.67      0.67      0.67         0.01
  C35                         0.67      0.67      0.67      0.67         0.01
  C36                         0.67      0.67      0.67      0.67         0.01
  C37                         0.67      0.67      0.67      0.67         0.01
  C38                         0.67      0.67      0.67      0.52         0.01
  C39                         0.67      0.67      0.67      0.54         0.09
  C40                         0.67      0.67      0.67      0.28         0.01
  C41                         0.67      0.67      0.67      0.67         0.01
  C43                         0.67      0.67      0.67      0.67         0.01
  C44                         0.67      0.67      0.67      0.67         0.01
  C45                         0.67      0.67      0.67      0.67         0.01
  C46                         0.67      0.67      0.67      0.67         0.01
  C48                         0.67      0.67      0.67      0.01         0.01
  C42                         0.67      0.67      0.67      0.01         0.01
  C50                         0.67      0.67      0.67      0.67         0.01
  C49                         0.67      0.67      0.67      0.67         0.01
  C01                         0.67      0.67      0.67      0.01         0.01
  C02                         0.67      0.67      0.67      0.01         0.01
  C03                         0.67      0.67      0.67      0.67         0.01
  C04                         0.67      0.67      0.67      0.56         0.01
  C05                         0.67      0.67      0.67      0.03         0.08
  C06                         0.67      0.67      0.67      0.01         0.01
  C07                         0.67      0.67      0.67      0.01         0.01
  C08                         0.67      0.67      0.67      0.01         0.01
  C09                         0.67      0.67      0.67      0.67         0.01
  C10                         0.67      0.67      0.67      0.67         0.01
  C11                         0.67      0.67      0.67      0.01         0.01
  C12                         0.67      0.67      0.67      0.67         0.01
  C13                         0.67      0.67      0.67      0.67         0.08
  C14                         0.67      0.67      0.67      0.67         0.01
  C15                         0.67      0.67      0.67      0.67         0.08
  C16                         0.67      0.67      0.67      0.01         0.01
  C17                         0.67      0.67      0.67      0.67         0.01
  C18                         0.67      0.67      0.67      0.01         0.01
  C19                         0.67      0.67      0.67      0.67         0.01
  C20                         0.67      0.67      0.67      0.67         0.01
  C21                         0.67      0.67      0.67      0.67         0.01
  C22                         0.67      0.67      0.67      0.01         0.01
  C47                         0.67      0.67      0.67      0.67         0.01
  Cout                        0.01      0.67      0.01      0.67         0.01
  
  
  ***************
  Pumping Summary
  ***************
  
  ---------------------------------------------------------------------------------------------------------
                                                  Min       Avg       Max     Total     Power    % Time Off
                        Percent   Number of      Flow      Flow      Flow    Volume     Usage    Pump Curve
  Pump                 Utilized   Start-Ups       CMS       CMS       CMS  10^6 ltr     Kw-hr    Low   High
  ---------------------------------------------------------------------------------------------------------
  P1                       0.00           0      0.00      0.00      0.00     0.000      0.00    0.0    0.0
  

  Analysis begun on:  Mon Nov 25 18:31:13 2024
  Analysis ended on:  Mon Nov 25 18:31:13 2024
  Total elapsed time: < 1 sec