
  EPA STORM WATER MANAGEMENT MODEL - VERSION 5.2 (Build 5.2.4)
  PYSWMM TOOLKIT API - VERSION v1.0 (2023-11-27)
  ------------------------------------------------------------

  WARNING 04: minimum elevation drop used for Conduit C23
  WARNING 04: minimum elevation drop used for Conduit C24
  WARNING 04: minimum elevation drop used for Conduit C25
  WARNING 04: minimum elevation drop used for Conduit C26
  WARNING 04: minimum elevation drop used for Conduit C27
  WARNING 04: minimum elevation drop used for Conduit C28
  WARNING 04: minimum elevation drop used for Conduit C29
  WARNING 04: minimum elevation drop used for Conduit C30
  WARNING 04: minimum elevation drop used for Conduit C31
  WARNING 04: minimum elevation drop used for Conduit C32
  WARNING 04: minimum elevation drop used for Conduit C33
  WARNING 04: minimum elevation drop used for Conduit C34
  WARNING 04: minimum elevation drop used for Conduit C35
  WARNING 04: minimum elevation drop used for Conduit C36
  WARNING 04: minimum elevation drop used for Conduit C37
  WARNING 04: minimum elevation drop used for Conduit C38
  WARNING 04: minimum elevation drop used for Conduit C39
  WARNING 04: minimum elevation drop used for Conduit C40
  WARNING 04: minimum elevation drop used for Conduit C41
  WARNING 04: minimum elevation drop used for Conduit C43
  WARNING 04: minimum elevation drop used for Conduit C44
  WARNING 04: minimum elevation drop used for Conduit C45
  WARNING 04: minimum elevation drop used for Conduit C46
  WARNING 04: minimum elevation drop used for Conduit C48
  WARNING 04: minimum elevation drop used for Conduit C42
  WARNING 04: minimum elevation drop used for Conduit C50
  WARNING 04: minimum elevation drop used for Conduit C49
  WARNING 04: minimum elevation drop used for Conduit C01
  WARNING 04: minimum elevation drop used for Conduit C02
  WARNING 04: minimum elevation drop used for Conduit C03
  WARNING 04: minimum elevation drop used for Conduit C04
  WARNING 04: minimum elevation drop used for Conduit C05
  WARNING 04: minimum elevation drop used for Conduit C06
  WARNING 04: minimum elevation drop used for Conduit C07
  WARNING 04: minimum elevation drop used for Conduit C08
  WARNING 04: minimum elevation drop used for Conduit C09
  WARNING 04: minimum elevation drop used for Conduit C10
  WARNING 04: minimum elevation drop used for Conduit C11
  WARNING 04: minimum elevation drop used for Conduit C12
  WARNING 04: minimum elevation drop used for Conduit C13
  WARNING 04: minimum elevation drop used for Conduit C14
  WARNING 04: minimum elevation drop used for Conduit C15
  WARNING 04: minimum elevation drop used for Conduit C16
  WARNING 04: minimum elevation drop used for Conduit C17
  WARNING 04: minimum elevation drop used for Conduit C18
  WARNING 04: minimum elevation drop used for Conduit C19
  WARNING 04: minimum elevation drop used for Conduit C20
  WARNING 04: minimum elevation drop used for Conduit C21
  WARNING 04: minimum elevation drop used for Conduit C22
  WARNING 04: minimum elevation drop used for Conduit C47
  WARNING 04: minimum elevation drop used for Conduit Cout
  
  ****************
  Analysis Options
  ****************
  Flow Units ............... CMS
  Process Models:
    Rainfall/Runoff ........ YES
    RDII ................... NO
    Snowmelt ............... NO
    Groundwater ............ NO
    Flow Routing ........... YES
    Ponding Allowed ........ NO
    Water Quality .......... NO
  Infiltration Method ...... HORTON
  Flow Routing Method ...... DYNWAVE
  Surcharge Method ......... EXTRAN
  Starting Date ............ 08/09/2022 02:00:00
  Ending Date .............. 08/09/2022 02:40:00
  Antecedent Dry Days ...... 0.0
  Report Time Step ......... 00:10:00
  Wet Time Step ............ 00:05:00
  Dry Time Step ............ 01:00:00
  Routing Time Step ........ 300.00 sec
  Variable Time Step ....... YES
  Maximum Trials ........... 8
  Number of Threads ........ 1
  Head Tolerance ........... 0.001524 m
  
  
  *********************
  Rainfall File Summary
  *********************
  Station    First        Last         Recording   Periods    Periods    Periods
  ID         Date         Date         Frequency  w/Precip    Missing    Malfunc.
  -------------------------------------------------------------------------------
  735        08/09/2022   08/09/2022      10 min         5          0          0

  
  
  **************************        Volume         Depth
  Runoff Quantity Continuity     hectare-m            mm
  **************************     ---------       -------
  Total Precipitation ......        58.418       584.200
  Evaporation Loss .........         0.000         0.000
  Infiltration Loss ........         0.000         0.000
  Surface Runoff ...........        55.105       551.071
  Final Storage ............         3.920        39.197
  Continuity Error (%) .....        -1.039
  
  
  **************************        Volume        Volume
  Flow Routing Continuity        hectare-m      10^6 ltr
  **************************     ---------     ---------
  Dry Weather Inflow .......         0.000         0.000
  Wet Weather Inflow .......        54.463       544.633
  Groundwater Inflow .......         0.000         0.000
  RDII Inflow ..............         0.000         0.000
  External Inflow ..........         0.000         0.000
  External Outflow .........         1.664        16.641
  Flooding Loss ............        50.268       502.687
  Evaporation Loss .........         0.000         0.000
  Exfiltration Loss ........         0.000         0.000
  Initial Stored Volume ....         0.046         0.463
  Final Stored Volume ......         1.883        18.831
  Continuity Error (%) .....         1.272
  
  
  *************************
  Highest Continuity Errors
  *************************
  Node J3 (13.84%)
  Node J30 (11.66%)
  Node J17 (11.65%)
  Node J24 (6.99%)
  Node J18 (6.92%)
  
  
  ***************************
  Time-Step Critical Elements
  ***************************
  Link Cout (98.69%)
  
  
  ********************************
  Highest Flow Instability Indexes
  ********************************
  Link C24 (2)
  Link C25 (2)
  Link C31 (2)
  Link C33 (2)
  Link C34 (2)
  
  
  *********************************
  Most Frequent Nonconverging Nodes
  *********************************
  Convergence obtained at all time steps.
  
  
  *************************
  Routing Time Step Summary
  *************************
  Minimum Time Step           :     4.92 sec
  Average Time Step           :    15.69 sec
  Maximum Time Step           :   300.00 sec
  % of Time in Steady State   :     0.00
  Average Iterations per Step :     2.04
  % of Steps Not Converging   :     0.00
  Time Step Frequencies       :
     300.000 - 83.462 sec      :     0.66 %
     83.462 - 23.220 sec      :     0.00 %
     23.220 -  6.460 sec      :    98.68 %
      6.460 -  1.797 sec      :     0.66 %
      1.797 -  0.500 sec      :     0.00 %
  
  
  ***************************
  Subcatchment Runoff Summary
  ***************************
  
  ------------------------------------------------------------------------------------------------------------------------------
                            Total      Total      Total      Total     Imperv       Perv      Total       Total     Peak  Runoff
                           Precip      Runon       Evap      Infil     Runoff     Runoff     Runoff      Runoff   Runoff   Coeff
  Subcatchment                 mm         mm         mm         mm         mm         mm         mm    10^6 ltr      CMS
  ------------------------------------------------------------------------------------------------------------------------------
  S1                       584.20       0.00       0.00       0.00       5.78     578.42     584.20      147.37   106.80   1.000
  S2                       584.20       0.00       0.00       0.00       5.32     580.27     585.59        4.55     3.29   1.002
  S3                       584.20       0.00       0.00       0.00       5.32     578.88     584.20        1.21     0.88   1.000
  S4                       584.20       0.00       0.00       0.00       5.32     578.88     584.20        1.20     0.87   1.000
  S5                       584.20       0.00       0.00       0.00       5.32     578.88     584.20        1.75     1.27   1.000
  S6                       584.20       0.00       0.00       0.00       5.32     578.88     584.20        4.81     3.49   1.000
  S7                       584.20       0.00       0.00       0.00       5.32     578.88     584.20        0.91     0.66   1.000
  S8                       584.20       0.00       0.00       0.00       5.32     578.88     584.20        2.85     2.06   1.000
  S9                       584.20       0.00       0.00       0.00       5.32     578.88     584.20        3.52     2.55   1.000
  S10                      584.20       0.00       0.00       0.00       0.00     578.88     578.88        0.82     0.59   0.991
  S11                      584.20       0.00       0.00       0.00       5.32     561.82     567.14        8.30     5.88   0.971
  S12                      584.20       0.00       0.00       0.00       5.32     578.88     584.20        5.07     3.67   1.000
  S13                      584.20       0.00       0.00       0.00       0.00     578.88     578.88        4.89     3.54   0.991
  S14                      584.20       0.00       0.00       0.00       4.91     579.29     584.20        4.69     3.40   1.000
  S15                      584.20       0.00       0.00       0.00       4.91     579.29     584.20        4.38     3.18   1.000
  S16                      584.20       0.00       0.00       0.00       4.50     579.37     583.87       10.31     7.46   0.999
  S17                      584.20       0.00       0.00       0.00       4.50     526.99     531.49       18.10    11.20   0.910
  S18                      584.20       0.00       0.00       0.00       4.50     579.74     584.24        0.75     0.55   1.000
  S19                      584.20       0.00       0.00       0.00       4.50       0.00       4.50        0.01     0.01   0.008
  S20                      584.20       0.00       0.00       0.00       4.50     579.73     584.23        0.60     0.43   1.000
  S21                      584.20       0.00       0.00       0.00       4.50     572.59     577.09        9.57     6.90   0.988
  S22                      584.20       0.00       0.00       0.00       4.50     579.72     584.22        0.19     0.14   1.000
  S23                      584.20       0.00       0.00       0.00       4.50     579.70     584.20        0.23     0.17   1.000
  S24                      584.20       0.00       0.00       0.00       4.50     579.70     584.20        0.29     0.21   1.000
  S25                      584.20       0.00       0.00       0.00       4.50     579.70     584.20        0.34     0.25   1.000
  S26                      584.20       0.00       0.00       0.00       4.50     579.70     584.20        0.40     0.29   1.000
  S27                      584.20       0.00       0.00       0.00       4.50     580.32     584.82        4.86     3.52   1.001
  S28                      584.20       0.00       0.00       0.00       4.50     573.91     578.41        5.14     3.71   0.990
  S29                      584.20       0.00       0.00       0.00       4.50     579.72     584.22        0.54     0.39   1.000
  S30                      584.20       0.00       0.00       0.00       4.50     509.07     513.57       32.71    18.67   0.879
  S31                      584.20       0.00       0.00       0.00       4.67     579.53     584.20        7.92     5.74   1.000
  S32                      584.20       0.00       0.00       0.00       4.67     579.53     584.20        2.44     1.77   1.000
  S33                      584.20       0.00       0.00       0.00       5.49     578.71     584.20        1.82     1.32   1.000
  S34                      584.20       0.00       0.00       0.00       5.49     578.71     584.20        1.92     1.39   1.000
  S35                      584.20       0.00       0.00       0.00       5.32     578.88     584.20        2.35     1.70   1.000
  S36                      584.20       0.00       0.00       0.00       5.32     578.88     584.20        0.96     0.70   1.000
  S37                      584.20       0.00       0.00       0.00       5.32     578.88     584.20        2.10     1.52   1.000
  S38                      584.20       0.00       0.00       0.00       5.32     578.88     584.20        0.09     0.07   1.000
  S39                      584.20       0.00       0.00       0.00       5.32     578.88     584.20        2.40     1.74   1.000
  S40                      584.20       0.00       0.00       0.00       5.32     578.88     584.20        0.82     0.60   1.000
  S41                      584.20       0.00       0.00       0.00       5.32     578.88     584.20        1.33     0.96   1.000
  S42                      584.20       0.00       0.00       0.00       5.32     578.88     584.20        1.85     1.34   1.000
  S43                      584.20       0.00       0.00       0.00       5.32     578.88     584.20        4.21     3.05   1.000
  S44                      584.20       0.00       0.00       0.00       5.32     578.88     584.20        3.05     2.21   1.000
  S45                      584.20       0.00       0.00       0.00       5.32     578.88     584.20        0.31     0.22   1.000
  S46                      584.20       0.00       0.00       0.00       5.32     578.88     584.20        2.83     2.05   1.000
  S47                      584.20       0.00       0.00       0.00       5.32     578.88     584.20        5.71     4.14   1.000
  S48                      584.20       0.00       0.00       0.00       5.32     578.88     584.20        6.60     4.78   1.000
  S49                      584.20       0.00       0.00       0.00       5.32     578.88     584.20        4.01     2.91   1.000
  S50                      584.20       0.00       0.00       0.00       5.32     578.88     584.20        3.31     2.40   1.000
  S51                      584.20       0.00       0.00       0.00       5.32     578.88     584.20        1.95     1.41   1.000
  S52                      584.20       0.00       0.00       0.00       5.32     578.88     584.20        5.17     3.75   1.000
  S53                      584.20       0.00       0.00       0.00       5.32     573.62     578.94        7.05     5.10   0.991
  S54                      584.20       0.00       0.00       0.00       5.32     580.35     585.67        2.68     1.93   1.003
  S55                      584.20       0.00       0.00       0.00       5.32     578.88     584.20        0.22     0.16   1.000
  S56                      584.20       0.00       0.00       0.00       5.32     578.88     584.20        0.22     0.16   1.000
  S57                      584.20       0.00       0.00       0.00       5.32     578.88     584.20        3.02     2.19   1.000
  S58                      584.20       0.00       0.00       0.00       5.32     578.88     584.20        3.88     2.81   1.000
  S59                      584.20       0.00       0.00       0.00       5.32     578.88     584.20        3.77     2.73   1.000
  S60                      584.20       0.00       0.00       0.00       4.50     580.95     585.44        2.30     1.66   1.002
  S61                      584.20       0.00       0.00       0.00       4.50       0.00       4.50        0.01     0.01   0.008
  S62                      584.20       0.00       0.00       0.00       4.50     495.94     500.44       26.82    14.67   0.857
  S63                      584.20       0.00       0.00       0.00       4.50     579.70     584.20        5.49     3.98   1.000
  S64                      584.20       0.00       0.00       0.00       4.50     579.70     584.20       14.87    10.78   1.000
  S65                      584.20       0.00       0.00       0.00       4.50     579.70     584.20        2.37     1.72   1.000
  S66                      584.20       0.00       0.00       0.00       4.50     579.70     584.20        3.83     2.77   1.000
  S67                      584.20       0.00       0.00       0.00       4.50     579.70     584.20        7.15     5.18   1.000
  S68                      584.20       0.00       0.00       0.00       4.50     579.70     584.20        8.38     6.08   1.000
  S69                      584.20       0.00       0.00       0.00       4.50       0.00       4.50        0.11     0.08   0.008
  S70                      584.20       0.00       0.00       0.00       4.50     571.98     576.47       15.09    10.88   0.987
  S71                      584.20       0.00       0.00       0.00       5.32     578.88     584.20        8.59     6.23   1.000
  S72                      584.20       0.00       0.00       0.00       4.50     580.11     584.60        2.90     2.10   1.001
  S73                      584.20       0.00       0.00       0.00       4.50     579.70     584.20       12.24     8.87   1.000
  S74                      584.20       0.00       0.00       0.00       4.50       0.00       4.50        0.03     0.02   0.008
  S75                      584.20       0.00       0.00       0.00       4.50     579.70     584.20        0.39     0.28   1.000
  S76                      584.20       0.00       0.00       0.00       4.50     579.70     584.20        7.72     5.59   1.000
  S77                      584.20       0.00       0.00       0.00       4.50     579.70     584.20        6.25     4.53   1.000
  S78                      584.20       0.00       0.00       0.00       4.50     579.70     584.20        4.53     3.28   1.000
  S79                      584.20       0.00       0.00       0.00       5.32     578.88     584.20        3.97     2.87   1.000
  S80                      584.20       0.00       0.00       0.00       4.50     580.26     584.76        1.61     1.17   1.001
  S81                      584.20       0.00       0.00       0.00       4.50     579.70     584.20        6.61     4.79   1.000
  S82                      584.20       0.00       0.00       0.00       4.50     579.70     584.20        6.45     4.67   1.000
  S83                      584.20       0.00       0.00       0.00       4.50     579.70     584.20        4.15     3.01   1.000
  S84                      584.20       0.00       0.00       0.00       5.32     578.88     584.20        2.71     1.96   1.000
  S85                      584.20       0.00       0.00       0.00       5.32     576.24     581.55        7.19     5.20   0.995
  S86                      584.20       0.00       0.00       0.00       0.00     578.88     578.88        6.70     4.85   0.991
  S87                      584.20       0.00       0.00       0.00       5.32     578.88     584.20        7.26     5.26   1.000
  S88                      584.20       0.00       0.00       0.00       5.32     578.88     584.20        1.31     0.95   1.000
  S89                      584.20       0.00       0.00       0.00       5.32     578.88     584.20        5.91     4.28   1.000
  S90                      584.20       0.00       0.00       0.00       0.00     578.88     578.88        2.84     2.06   0.991
  S91                      584.20       0.00       0.00       0.00       5.32     578.88     584.20        0.96     0.70   1.000
  
  
  ******************
  Node Depth Summary
  ******************
  
  ---------------------------------------------------------------------------------
                                 Average  Maximum  Maximum  Time of Max    Reported
                                   Depth    Depth      HGL   Occurrence   Max Depth
  Node                 Type       Meters   Meters   Meters  days hr:min      Meters
  ---------------------------------------------------------------------------------
  J7                   JUNCTION     2.48     2.50     2.50     0  00:05        2.50
  J13                  JUNCTION     2.48     2.50     2.50     0  00:05        2.50
  J19                  JUNCTION     2.48     2.50     2.50     0  00:05        2.50
  J25                  JUNCTION     2.48     2.50     2.50     0  00:05        2.50
  J1                   JUNCTION     2.48     2.50     2.50     0  00:05        2.50
  J2                   JUNCTION     2.48     2.50     2.50     0  00:05        2.50
  J3                   JUNCTION     2.48     2.50     2.50     0  00:05        2.50
  J4                   JUNCTION     2.48     2.50     2.50     0  00:05        2.50
  J5                   JUNCTION     2.48     2.50     2.50     0  00:05        2.50
  J6                   JUNCTION     2.48     2.50     2.50     0  00:05        2.50
  J8                   JUNCTION     2.48     2.50     2.50     0  00:05        2.50
  J9                   JUNCTION     2.48     2.50     2.50     0  00:05        2.50
  J10                  JUNCTION     2.48     2.50     2.50     0  00:05        2.50
  J11                  JUNCTION     2.48     2.50     2.50     0  00:05        2.50
  J12                  JUNCTION     2.48     2.50     2.50     0  00:05        2.50
  J14                  JUNCTION     2.48     2.50     2.50     0  00:05        2.50
  J15                  JUNCTION     2.48     2.50     2.50     0  00:05        2.50
  J16                  JUNCTION     2.48     2.50     2.50     0  00:05        2.50
  J17                  JUNCTION     2.48     2.50     2.50     0  00:05        2.50
  J18                  JUNCTION     2.48     2.50     2.50     0  00:05        2.50
  J20                  JUNCTION     2.48     2.50     2.50     0  00:05        2.50
  J21                  JUNCTION     2.48     2.50     2.50     0  00:05        2.50
  J22                  JUNCTION     2.48     2.50     2.50     0  00:05        2.50
  J23                  JUNCTION     2.48     2.50     2.50     0  00:05        2.50
  J24                  JUNCTION     2.48     2.50     2.50     0  00:05        2.50
  J26                  JUNCTION     2.48     2.50     2.50     0  00:05        2.50
  J27                  JUNCTION     2.48     2.50     2.50     0  00:05        2.50
  J29                  JUNCTION     2.48     2.50     2.50     0  00:05        2.50
  J30                  JUNCTION     2.48     2.50     2.50     0  00:05        2.50
  J31                  JUNCTION     2.48     2.50     2.50     0  00:05        2.50
  J33                  JUNCTION     2.48     2.50     2.50     0  00:05        2.50
  J32                  JUNCTION     2.48     2.50     2.50     0  00:05        2.50
  J28                  JUNCTION     2.48     2.50     2.50     0  00:05        2.50
  OF                   OUTFALL      1.36     1.41     1.41     0  00:05        1.37
  
  
  *******************
  Node Inflow Summary
  *******************
  
  -------------------------------------------------------------------------------------------------
                                  Maximum  Maximum                  Lateral       Total        Flow
                                  Lateral    Total  Time of Max      Inflow      Inflow     Balance
                                   Inflow   Inflow   Occurrence      Volume      Volume       Error
  Node                 Type           CMS      CMS  days hr:min    10^6 ltr    10^6 ltr     Percent
  -------------------------------------------------------------------------------------------------
  J7                   JUNCTION    21.343   21.343     0  00:10        35.4        35.4       2.176
  J13                  JUNCTION     2.412    2.823     0  00:10         3.3        4.01       5.387
  J19                  JUNCTION   114.420  114.420     0  00:10         157         157       5.111
  J25                  JUNCTION    11.203   12.107     0  00:10        17.6        19.1       2.942
  J1                   JUNCTION     9.609    9.609     0  00:05        13.2        13.2       5.184
  J2                   JUNCTION     7.219    7.862     0  00:05        9.88        10.6       4.245
  J3                   JUNCTION     0.322    9.633     0  00:05        0.44           5      16.060
  J4                   JUNCTION    20.902   23.156     0  00:05        28.6        30.5       4.086
  J5                   JUNCTION    17.282   17.519     0  00:05        23.7          24       3.683
  J6                   JUNCTION     7.562    7.562     0  00:10        10.4        10.4       4.574
  J8                   JUNCTION    11.634   11.634     0  00:10        15.9        15.9       5.547
  J9                   JUNCTION     5.200    5.376     0  00:10        7.11        7.47       3.696
  J10                  JUNCTION     7.807    7.807     0  00:05        10.7        10.7       3.262
  J11                  JUNCTION     8.387    9.968     0  00:05        11.5          13       4.342
  J12                  JUNCTION     8.874    9.460     0  00:05        12.1        12.8       4.898
  J14                  JUNCTION     7.519    7.519     0  00:10        10.3        10.3       5.580
  J15                  JUNCTION    10.701   10.701     0  00:10        14.6        14.6       4.496
  J16                  JUNCTION     6.228    9.448     0  00:05        8.52        11.3       4.295
  J17                  JUNCTION     0.081    5.958     0  00:05       0.111        3.68      13.184
  J18                  JUNCTION     0.284    1.491     0  00:05       0.388        1.37       7.434
  J20                  JUNCTION    20.724   20.724     0  00:10        28.5        28.5       5.105
  J21                  JUNCTION     6.941    6.941     0  00:10         9.5         9.5       5.580
  J22                  JUNCTION    14.053   14.053     0  00:10        19.2        19.2       3.977
  J23                  JUNCTION     7.459    7.985     0  00:10        10.2          11       4.819
  J24                  JUNCTION     0.986    3.385     0  00:05        1.35        2.76       7.514
  J26                  JUNCTION     6.131    6.131     0  00:10        8.39        8.39       5.580
  J27                  JUNCTION     5.377    6.847     0  00:05        7.37        8.85       5.127
  J29                  JUNCTION     8.819    9.884     0  00:05        12.1        13.3       5.006
  J30                  JUNCTION     0.000    5.861     0  00:05           0        3.62      13.199
  J31                  JUNCTION    18.675   19.312     0  00:10        31.7        32.7       1.874
  J33                  JUNCTION     8.677    8.677     0  00:10        11.9        11.9       5.553
  J32                  JUNCTION     3.959    3.959     0  00:10        5.42        5.42       4.903
  J28                  JUNCTION     6.330    8.386     0  00:05        8.66        10.5       4.356
  OF                   OUTFALL      0.000    7.967     0  00:05           0        16.6       0.000
  
  
  **********************
  Node Surcharge Summary
  **********************
  
  Surcharging occurs when water rises above the top of the highest conduit.
  ---------------------------------------------------------------------
                                               Max. Height   Min. Depth
                                   Hours       Above Crown    Below Rim
  Node                 Type      Surcharged         Meters       Meters
  ---------------------------------------------------------------------
  J7                   JUNCTION        0.67          0.850        0.000
  J13                  JUNCTION        0.67          0.850        0.000
  J19                  JUNCTION        0.67          0.850        0.000
  J25                  JUNCTION        0.67          0.850        0.000
  J1                   JUNCTION        0.67          0.850        0.000
  J2                   JUNCTION        0.67          0.850        0.000
  J3                   JUNCTION        0.67          0.850        0.000
  J4                   JUNCTION        0.67          0.850        0.000
  J5                   JUNCTION        0.67          0.850        0.000
  J6                   JUNCTION        0.67          0.850        0.000
  J8                   JUNCTION        0.67          0.850        0.000
  J9                   JUNCTION        0.67          0.850        0.000
  J10                  JUNCTION        0.67          0.850        0.000
  J11                  JUNCTION        0.67          0.850        0.000
  J12                  JUNCTION        0.67          0.850        0.000
  J14                  JUNCTION        0.67          0.850        0.000
  J15                  JUNCTION        0.67          0.850        0.000
  J16                  JUNCTION        0.67          0.850        0.000
  J17                  JUNCTION        0.67          0.850        0.000
  J18                  JUNCTION        0.67          0.850        0.000
  J20                  JUNCTION        0.67          0.850        0.000
  J21                  JUNCTION        0.67          0.850        0.000
  J22                  JUNCTION        0.67          0.850        0.000
  J23                  JUNCTION        0.67          0.850        0.000
  J24                  JUNCTION        0.67          0.850        0.000
  J26                  JUNCTION        0.67          0.850        0.000
  J27                  JUNCTION        0.67          0.850        0.000
  J29                  JUNCTION        0.67          0.850        0.000
  J30                  JUNCTION        0.67          0.850        0.000
  J31                  JUNCTION        0.67          0.850        0.000
  J33                  JUNCTION        0.67          0.850        0.000
  J32                  JUNCTION        0.67          0.850        0.000
  J28                  JUNCTION        0.67          0.850        0.000
  
  
  *********************
  Node Flooding Summary
  *********************
  
  Flooding refers to all water that overflows a node, whether it ponds or not.
  --------------------------------------------------------------------------
                                                             Total   Maximum
                                 Maximum   Time of Max       Flood    Ponded
                        Hours       Rate    Occurrence      Volume     Depth
  Node                 Flooded       CMS   days hr:min    10^6 ltr    Meters
  --------------------------------------------------------------------------
  J7                      0.67    20.391      0  00:10      33.808     0.000
  J13                     0.67     2.822      0  00:10       4.010     0.000
  J19                     0.67   107.064      0  00:10     139.973     0.000
  J25                     0.67    12.072      0  00:10      19.107     0.000
  J1                      0.67     9.178      0  00:10      12.466     0.000
  J2                      0.67     6.544      0  00:10       8.843     0.000
  J3                      0.67     9.059      0  00:05       4.998     0.000
  J4                      0.67    20.597      0  00:10      27.498     0.000
  J5                      0.67    14.898      0  00:10      19.864     0.000
  J6                      0.67     6.625      0  00:10       8.801     0.000
  J8                      0.67    11.575      0  00:10      15.802     0.000
  J9                      0.67     4.766      0  00:10       6.531     0.000
  J10                     0.67     6.028      0  00:10       7.882     0.000
  J11                     0.67     8.503      0  00:10      11.583     0.000
  J12                     0.67     8.650      0  00:10      11.817     0.000
  J14                     0.67     7.519      0  00:10      10.292     0.000
  J15                     0.67    10.023      0  00:10      13.568     0.000
  J16                     0.67     7.100      0  00:08       9.675     0.000
  J17                     0.67     5.726      0  00:05       3.683     0.000
  J18                     0.67     1.294      0  00:05       1.045     0.000
  J20                     0.67    20.710      0  00:10      28.483     0.000
  J21                     0.67     6.941      0  00:10       9.500     0.000
  J22                     0.67    12.934      0  00:10      17.524     0.000
  J23                     0.67     7.408      0  00:10      10.075     0.000
  J24                     0.67     2.606      0  00:05       2.038     0.000
  J26                     0.67     6.131      0  00:10       8.391     0.000
  J27                     0.67     5.950      0  00:05       8.020     0.000
  J29                     0.67     8.786      0  00:10      12.025     0.000
  J30                     0.67     5.649      0  00:05       3.618     0.000
  J31                     0.67    18.439      0  00:10      31.264     0.000
  J33                     0.67     8.677      0  00:10      11.887     0.000
  J32                     0.67     3.624      0  00:10       4.866     0.000
  J28                     0.67     6.630      0  00:10       9.053     0.000
  
  
  ***********************
  Outfall Loading Summary
  ***********************
  
  -----------------------------------------------------------
                         Flow       Avg       Max       Total
                         Freq      Flow      Flow      Volume
  Outfall Node           Pcnt       CMS       CMS    10^6 ltr
  -----------------------------------------------------------
  OF                   100.00     7.312     7.967      16.641
  -----------------------------------------------------------
  System               100.00     7.312     7.967      16.641
  
  
  ********************
  Link Flow Summary
  ********************
  
  -----------------------------------------------------------------------------
                                 Maximum  Time of Max   Maximum    Max/    Max/
                                  |Flow|   Occurrence   |Veloc|    Full    Full
  Link                 Type          CMS  days hr:min     m/sec    Flow   Depth
  -----------------------------------------------------------------------------
  P1                   PUMP        0.000     0  00:00                          
  C23                  CONDUIT     0.056     0  00:05      0.03    0.49    1.00
  C24                  CONDUIT     1.033     0  00:05      0.48    8.95    1.00
  C25                  CONDUIT     0.066     0  00:05      0.03    0.53    1.00
  C26                  CONDUIT     0.884     0  00:05      0.41    6.91    1.00
  C27                  CONDUIT     0.062     0  00:05      0.03    0.51    1.00
  C28                  CONDUIT     1.127     0  00:05      0.53    7.77    1.00
  C29                  CONDUIT     0.643     0  00:05      0.30    4.53    1.00
  C30                  CONDUIT     1.148     0  00:05      0.54   10.09    1.00
  C31                  CONDUIT     0.697     0  00:05      0.33    6.10    1.00
  C32                  CONDUIT     2.372     0  00:05      1.11   15.33    1.00
  C33                  CONDUIT     6.051     0  00:05      2.83   35.40    1.00
  C34                  CONDUIT     1.106     0  00:05      0.52    8.80    1.00
  C35                  CONDUIT     0.237     0  00:05      0.11    2.52    1.00
  C36                  CONDUIT     0.586     0  00:05      0.27    5.53    1.00
  C37                  CONDUIT     0.930     0  00:05      0.43    6.38    1.00
  C38                  CONDUIT     0.985     0  00:05      0.46    6.87    1.00
  C39                  CONDUIT     0.889     0  00:05      0.42    5.64    1.00
  C40                  CONDUIT     0.000     0  00:00      0.00    0.00    1.00
  C41                  CONDUIT     0.000     0  00:00      0.00    0.00    1.00
  C43                  CONDUIT     0.000     0  00:00      0.00    0.00    1.00
  C44                  CONDUIT     0.614     0  00:05      0.29    5.24    1.00
  C45                  CONDUIT     2.681     0  00:05      1.25   23.00    1.00
  C46                  CONDUIT     2.578     0  00:05      1.21   21.36    1.00
  C48                  CONDUIT     0.000     0  00:05      0.00    0.00    1.00
  C42                  CONDUIT     0.603     0  00:05      0.28    4.78    1.00
  C50                  CONDUIT     0.451     0  00:05      0.21    4.36    1.00
  C49                  CONDUIT     0.524     0  00:05      0.24    4.57    1.00
  C01                  CONDUIT     0.000     0  00:00      0.00    0.00    1.00
  C02                  CONDUIT     0.000     0  00:00      0.00    0.00    1.00
  C03                  CONDUIT     0.891     0  00:05      0.42    7.12    1.00
  C04                  CONDUIT     0.580     0  00:05      0.27    4.56    1.00
  C05                  CONDUIT     0.700     0  00:05      0.33    5.58    1.00
  C06                  CONDUIT     0.000     0  00:00      0.00    0.00    1.00
  C07                  CONDUIT     0.000     0  00:00      0.00    0.00    1.00
  C08                  CONDUIT     0.000     0  00:00      0.00    0.00    1.00
  C09                  CONDUIT     1.017     0  00:05      0.48    8.90    1.00
  C10                  CONDUIT     1.170     0  00:05      0.55    9.33    1.00
  C11                  CONDUIT     0.000     0  00:00      0.00    0.00    1.00
  C12                  CONDUIT     0.203     0  00:05      0.09    1.75    1.00
  C13                  CONDUIT     0.056     0  00:05      0.03    0.48    1.00
  C14                  CONDUIT     3.055     0  00:05      1.43   24.27    1.00
  C15                  CONDUIT     0.118     0  00:05      0.06    0.94    1.00
  C16                  CONDUIT     2.399     0  00:05      1.12   21.06    1.00
  C17                  CONDUIT     2.500     0  00:05      1.17   22.07    1.00
  C18                  CONDUIT     0.000     0  00:00      0.00    0.00    1.00
  C19                  CONDUIT     0.083     0  00:05      0.04    0.66    1.00
  C20                  CONDUIT     1.207     0  00:05      0.56   10.75    1.00
  C21                  CONDUIT     0.446     0  00:05      0.21    4.22    1.00
  C22                  CONDUIT     0.000     0  00:05      0.00    0.00    1.00
  C47                  CONDUIT     1.265     0  00:05      0.59   13.00    1.00
  Cout                 CONDUIT     7.967     0  00:05      3.85   62.91    0.93
  
  
  ***************************
  Flow Classification Summary
  ***************************
  
  -------------------------------------------------------------------------------------
                      Adjusted    ---------- Fraction of Time in Flow Class ---------- 
                       /Actual         Up    Down  Sub   Sup   Up    Down  Norm  Inlet 
  Conduit               Length    Dry  Dry   Dry   Crit  Crit  Crit  Crit  Ltd   Ctrl  
  -------------------------------------------------------------------------------------
  C23                     1.00   0.00  0.00  0.00  1.00  0.00  0.00  0.00  0.00  0.00
  C24                     1.00   0.00  0.00  0.00  1.00  0.00  0.00  0.00  0.00  0.00
  C25                     1.00   0.00  0.00  0.00  1.00  0.00  0.00  0.00  0.00  0.00
  C26                     1.00   0.00  0.00  0.00  1.00  0.00  0.00  0.00  0.00  0.00
  C27                     1.00   0.00  0.00  0.00  1.00  0.00  0.00  0.00  0.00  0.00
  C28                     1.00   0.00  0.00  0.00  1.00  0.00  0.00  0.00  0.00  0.00
  C29                     1.00   0.00  0.00  0.00  1.00  0.00  0.00  0.00  0.00  0.00
  C30                     1.00   0.00  0.00  0.00  1.00  0.00  0.00  0.00  0.00  0.00
  C31                     1.00   0.00  0.00  0.00  1.00  0.00  0.00  0.00  0.00  0.00
  C32                     1.00   0.00  0.00  0.00  1.00  0.00  0.00  0.00  0.00  0.00
  C33                     1.00   0.00  0.00  0.00  1.00  0.00  0.00  0.00  0.00  0.00
  C34                     1.00   0.00  0.00  0.00  1.00  0.00  0.00  0.00  0.00  0.00
  C35                     1.00   0.00  0.00  0.00  1.00  0.00  0.00  0.00  0.00  0.00
  C36                     1.00   0.00  0.00  0.00  1.00  0.00  0.00  0.00  0.00  0.00
  C37                     1.00   0.00  0.00  0.00  1.00  0.00  0.00  0.00  0.00  0.00
  C38                     1.00   0.00  0.00  0.00  1.00  0.00  0.00  0.00  0.00  0.00
  C39                     1.00   0.00  0.00  0.00  1.00  0.00  0.00  0.00  0.00  0.00
  C40                     1.00   0.00  0.00  0.00  1.00  0.00  0.00  0.00  0.00  0.00
  C41                     1.00   0.00  0.00  0.00  1.00  0.00  0.00  0.00  0.00  0.00
  C43                     1.00   0.00  0.00  0.00  1.00  0.00  0.00  0.00  0.00  0.00
  C44                     1.00   0.00  0.00  0.00  1.00  0.00  0.00  0.00  0.00  0.00
  C45                     1.00   0.00  0.00  0.00  1.00  0.00  0.00  0.00  0.00  0.00
  C46                     1.00   0.00  0.00  0.00  1.00  0.00  0.00  0.00  0.00  0.00
  C48                     1.00   0.00  0.00  0.00  1.00  0.00  0.00  0.00  0.00  0.00
  C42                     1.00   0.00  0.00  0.00  1.00  0.00  0.00  0.00  0.00  0.00
  C50                     1.00   0.00  0.00  0.00  1.00  0.00  0.00  0.00  0.00  0.00
  C49                     1.00   0.00  0.00  0.00  1.00  0.00  0.00  0.00  0.00  0.00
  C01                     1.00   0.00  0.00  0.00  1.00  0.00  0.00  0.00  0.00  0.00
  C02                     1.00   0.00  0.00  0.00  1.00  0.00  0.00  0.00  0.00  0.00
  C03                     1.00   0.00  0.00  0.00  1.00  0.00  0.00  0.00  0.00  0.00
  C04                     1.00   0.00  0.00  0.00  1.00  0.00  0.00  0.00  0.00  0.00
  C05                     1.00   0.00  0.00  0.00  1.00  0.00  0.00  0.00  0.00  0.00
  C06                     1.00   0.00  0.00  0.00  1.00  0.00  0.00  0.00  0.00  0.00
  C07                     1.00   0.00  0.00  0.00  1.00  0.00  0.00  0.00  0.00  0.00
  C08                     1.00   0.00  0.00  0.00  1.00  0.00  0.00  0.00  0.00  0.00
  C09                     1.00   0.00  0.00  0.00  1.00  0.00  0.00  0.00  0.00  0.00
  C10                     1.00   0.00  0.00  0.00  1.00  0.00  0.00  0.00  0.00  0.00
  C11                     1.00   0.00  0.00  0.00  1.00  0.00  0.00  0.00  0.00  0.00
  C12                     1.00   0.00  0.00  0.00  1.00  0.00  0.00  0.00  0.00  0.00
  C13                     1.00   0.00  0.00  0.00  1.00  0.00  0.00  0.00  0.00  0.00
  C14                     1.00   0.00  0.00  0.00  1.00  0.00  0.00  0.00  0.00  0.00
  C15                     1.00   0.00  0.00  0.00  1.00  0.00  0.00  0.00  0.00  0.00
  C16                     1.00   0.00  0.00  0.00  1.00  0.00  0.00  0.00  0.00  0.00
  C17                     1.00   0.00  0.00  0.00  1.00  0.00  0.00  0.00  0.00  0.00
  C18                     1.00   0.00  0.00  0.00  1.00  0.00  0.00  0.00  0.00  0.00
  C19                     1.00   0.00  0.00  0.00  1.00  0.00  0.00  0.00  0.00  0.00
  C20                     1.00   0.00  0.00  0.00  1.00  0.00  0.00  0.00  0.00  0.00
  C21                     1.00   0.00  0.00  0.00  1.00  0.00  0.00  0.00  0.00  0.00
  C22                     1.00   0.00  0.00  0.00  1.00  0.00  0.00  0.00  0.00  0.00
  C47                     1.00   0.00  0.00  0.00  1.00  0.00  0.00  0.00  0.00  0.00
  Cout                    1.00   0.00  0.00  0.00  1.00  0.00  0.00  0.00  0.00  0.00
  
  
  *************************
  Conduit Surcharge Summary
  *************************
  
  ----------------------------------------------------------------------------
                                                           Hours        Hours 
                         --------- Hours Full --------   Above Full   Capacity
  Conduit                Both Ends  Upstream  Dnstream   Normal Flow   Limited
  ----------------------------------------------------------------------------
  C23                         0.67      0.67      0.67      0.01         0.01
  C24                         0.67      0.67      0.67      0.67         0.01
  C25                         0.67      0.67      0.67      0.01         0.01
  C26                         0.67      0.67      0.67      0.67         0.01
  C27                         0.67      0.67      0.67      0.01         0.01
  C28                         0.67      0.67      0.67      0.67         0.01
  C29                         0.67      0.67      0.67      0.67         0.01
  C30                         0.67      0.67      0.67      0.67         0.01
  C31                         0.67      0.67      0.67      0.67         0.01
  C32                         0.67      0.67      0.67      0.67         0.01
  C33                         0.67      0.67      0.67      0.67         0.01
  C34                         0.67      0.67      0.67      0.67         0.01
  C35                         0.67      0.67      0.67      0.67         0.01
  C36                         0.67      0.67      0.67      0.67         0.01
  C37                         0.67      0.67      0.67      0.67         0.01
  C38                         0.67      0.67      0.67      0.67         0.01
  C39                         0.67      0.67      0.67      0.66         0.01
  C40                         0.67      0.67      0.67      0.01         0.01
  C41                         0.67      0.67      0.67      0.01         0.01
  C43                         0.67      0.67      0.67      0.01         0.01
  C44                         0.67      0.67      0.67      0.67         0.01
  C45                         0.67      0.67      0.67      0.67         0.01
  C46                         0.67      0.67      0.67      0.67         0.01
  C48                         0.67      0.67      0.67      0.01         0.01
  C42                         0.67      0.67      0.67      0.67         0.01
  C50                         0.67      0.67      0.67      0.67         0.01
  C49                         0.67      0.67      0.67      0.67         0.01
  C01                         0.67      0.67      0.67      0.01         0.01
  C02                         0.67      0.67      0.67      0.01         0.01
  C03                         0.67      0.67      0.67      0.67         0.01
  C04                         0.67      0.67      0.67      0.67         0.01
  C05                         0.67      0.67      0.67      0.67         0.01
  C06                         0.67      0.67      0.67      0.01         0.01
  C07                         0.67      0.67      0.67      0.01         0.01
  C08                         0.67      0.67      0.67      0.01         0.01
  C09                         0.67      0.67      0.67      0.67         0.01
  C10                         0.67      0.67      0.67      0.67         0.01
  C11                         0.67      0.67      0.67      0.01         0.01
  C12                         0.67      0.67      0.67      0.49         0.01
  C13                         0.67      0.67      0.67      0.01         0.01
  C14                         0.67      0.67      0.67      0.67         0.01
  C15                         0.67      0.67      0.67      0.01         0.01
  C16                         0.67      0.67      0.67      0.67         0.01
  C17                         0.67      0.67      0.67      0.67         0.01
  C18                         0.67      0.67      0.67      0.01         0.01
  C19                         0.67      0.67      0.67      0.01         0.01
  C20                         0.67      0.67      0.67      0.67         0.01
  C21                         0.67      0.67      0.67      0.67         0.01
  C22                         0.67      0.67      0.67      0.01         0.01
  C47                         0.67      0.67      0.67      0.67         0.01
  Cout                        0.01      0.67      0.01      0.67         0.01
  
  
  ***************
  Pumping Summary
  ***************
  
  ---------------------------------------------------------------------------------------------------------
                                                  Min       Avg       Max     Total     Power    % Time Off
                        Percent   Number of      Flow      Flow      Flow    Volume     Usage    Pump Curve
  Pump                 Utilized   Start-Ups       CMS       CMS       CMS  10^6 ltr     Kw-hr    Low   High
  ---------------------------------------------------------------------------------------------------------
  P1                       0.00           0      0.00      0.00      0.00     0.000      0.00    0.0    0.0
  

  Analysis begun on:  Thu Nov 21 12:16:59 2024
  Analysis ended on:  Thu Nov 21 12:16:59 2024
  Total elapsed time: < 1 sec