
  EPA STORM WATER MANAGEMENT MODEL - VERSION 5.2 (Build 5.2.4)
  PYSWMM TOOLKIT API - VERSION v1.0 (2023-11-27)
  ------------------------------------------------------------

  WARNING 04: minimum elevation drop used for Conduit C23
  WARNING 04: minimum elevation drop used for Conduit C24
  WARNING 04: minimum elevation drop used for Conduit C25
  WARNING 04: minimum elevation drop used for Conduit C26
  WARNING 04: minimum elevation drop used for Conduit C27
  WARNING 04: minimum elevation drop used for Conduit C28
  WARNING 04: minimum elevation drop used for Conduit C29
  WARNING 04: minimum elevation drop used for Conduit C30
  WARNING 04: minimum elevation drop used for Conduit C31
  WARNING 04: minimum elevation drop used for Conduit C32
  WARNING 04: minimum elevation drop used for Conduit C33
  WARNING 04: minimum elevation drop used for Conduit C34
  WARNING 04: minimum elevation drop used for Conduit C35
  WARNING 04: minimum elevation drop used for Conduit C36
  WARNING 04: minimum elevation drop used for Conduit C37
  WARNING 04: minimum elevation drop used for Conduit C38
  WARNING 04: minimum elevation drop used for Conduit C39
  WARNING 04: minimum elevation drop used for Conduit C40
  WARNING 04: minimum elevation drop used for Conduit C41
  WARNING 04: minimum elevation drop used for Conduit C43
  WARNING 04: minimum elevation drop used for Conduit C44
  WARNING 04: minimum elevation drop used for Conduit C45
  WARNING 04: minimum elevation drop used for Conduit C46
  WARNING 04: minimum elevation drop used for Conduit C48
  WARNING 04: minimum elevation drop used for Conduit C42
  WARNING 04: minimum elevation drop used for Conduit C50
  WARNING 04: minimum elevation drop used for Conduit C49
  WARNING 04: minimum elevation drop used for Conduit C01
  WARNING 04: minimum elevation drop used for Conduit C02
  WARNING 04: minimum elevation drop used for Conduit C03
  WARNING 04: minimum elevation drop used for Conduit C04
  WARNING 04: minimum elevation drop used for Conduit C05
  WARNING 04: minimum elevation drop used for Conduit C06
  WARNING 04: minimum elevation drop used for Conduit C07
  WARNING 04: minimum elevation drop used for Conduit C08
  WARNING 04: minimum elevation drop used for Conduit C09
  WARNING 04: minimum elevation drop used for Conduit C10
  WARNING 04: minimum elevation drop used for Conduit C11
  WARNING 04: minimum elevation drop used for Conduit C12
  WARNING 04: minimum elevation drop used for Conduit C13
  WARNING 04: minimum elevation drop used for Conduit C14
  WARNING 04: minimum elevation drop used for Conduit C15
  WARNING 04: minimum elevation drop used for Conduit C16
  WARNING 04: minimum elevation drop used for Conduit C17
  WARNING 04: minimum elevation drop used for Conduit C18
  WARNING 04: minimum elevation drop used for Conduit C19
  WARNING 04: minimum elevation drop used for Conduit C20
  WARNING 04: minimum elevation drop used for Conduit C21
  WARNING 04: minimum elevation drop used for Conduit C22
  WARNING 04: minimum elevation drop used for Conduit C47
  WARNING 04: minimum elevation drop used for Conduit Cout
  
  ****************
  Analysis Options
  ****************
  Flow Units ............... CMS
  Process Models:
    Rainfall/Runoff ........ YES
    RDII ................... NO
    Snowmelt ............... NO
    Groundwater ............ NO
    Flow Routing ........... YES
    Ponding Allowed ........ NO
    Water Quality .......... NO
  Infiltration Method ...... HORTON
  Flow Routing Method ...... DYNWAVE
  Surcharge Method ......... EXTRAN
  Starting Date ............ 08/15/2022 12:00:00
  Ending Date .............. 08/15/2022 12:50:00
  Antecedent Dry Days ...... 0.0
  Report Time Step ......... 00:10:00
  Wet Time Step ............ 00:05:00
  Dry Time Step ............ 01:00:00
  Routing Time Step ........ 300.00 sec
  Variable Time Step ....... YES
  Maximum Trials ........... 8
  Number of Threads ........ 1
  Head Tolerance ........... 0.001524 m
  
  
  *********************
  Rainfall File Summary
  *********************
  Station    First        Last         Recording   Periods    Periods    Periods
  ID         Date         Date         Frequency  w/Precip    Missing    Malfunc.
  -------------------------------------------------------------------------------
  107        08/15/2022   08/15/2022      10 min         6          0          0

  
  
  **************************        Volume         Depth
  Runoff Quantity Continuity     hectare-m            mm
  **************************     ---------       -------
  Total Precipitation ......       177.748      1777.556
  Evaporation Loss .........         0.000         0.000
  Infiltration Loss ........         0.000         0.000
  Surface Runoff ...........       168.876      1688.825
  Final Storage ............        11.057       110.571
  Continuity Error (%) .....        -1.229
  
  
  **************************        Volume        Volume
  Flow Routing Continuity        hectare-m      10^6 ltr
  **************************     ---------     ---------
  Dry Weather Inflow .......         0.000         0.000
  Wet Weather Inflow .......       162.910      1629.118
  Groundwater Inflow .......         0.000         0.000
  RDII Inflow ..............         0.000         0.000
  External Inflow ..........         0.000         0.000
  External Outflow .........         2.105        21.046
  Flooding Loss ............       154.598      1545.991
  Evaporation Loss .........         0.000         0.000
  Exfiltration Loss ........         0.000         0.000
  Initial Stored Volume ....         0.046         0.463
  Final Stored Volume ......         1.883        18.831
  Continuity Error (%) .....         2.682
  
  
  *************************
  Highest Continuity Errors
  *************************
  Node J3 (24.43%)
  Node J30 (21.83%)
  Node J17 (14.41%)
  Node J18 (13.82%)
  Node J21 (4.14%)
  
  
  ***************************
  Time-Step Critical Elements
  ***************************
  Link Cout (98.98%)
  
  
  ********************************
  Highest Flow Instability Indexes
  ********************************
  Link C24 (2)
  Link C31 (2)
  Link C33 (2)
  Link C46 (2)
  Link C49 (2)
  
  
  *********************************
  Most Frequent Nonconverging Nodes
  *********************************
  Convergence obtained at all time steps.
  
  
  *************************
  Routing Time Step Summary
  *************************
  Minimum Time Step           :     4.82 sec
  Average Time Step           :    15.30 sec
  Maximum Time Step           :   300.00 sec
  % of Time in Steady State   :     0.00
  Average Iterations per Step :     2.02
  % of Steps Not Converging   :     0.00
  Time Step Frequencies       :
     300.000 - 83.462 sec      :     0.51 %
     83.462 - 23.220 sec      :     0.00 %
     23.220 -  6.460 sec      :    98.46 %
      6.460 -  1.797 sec      :     1.03 %
      1.797 -  0.500 sec      :     0.00 %
  
  
  ***************************
  Subcatchment Runoff Summary
  ***************************
  
  ------------------------------------------------------------------------------------------------------------------------------
                            Total      Total      Total      Total     Imperv       Perv      Total       Total     Peak  Runoff
                           Precip      Runon       Evap      Infil     Runoff     Runoff     Runoff      Runoff   Runoff   Coeff
  Subcatchment                 mm         mm         mm         mm         mm         mm         mm    10^6 ltr      CMS
  ------------------------------------------------------------------------------------------------------------------------------
  S1                      1777.56       0.00       0.00       0.00      17.60    1759.96    1777.55      448.41   240.30   1.000
  S2                      1777.56       0.00       0.00       0.00      16.18    1761.76    1777.94       13.81     7.40   1.000
  S3                      1777.56       0.00       0.00       0.00      16.18    1761.38    1777.56        3.68     1.97   1.000
  S4                      1777.56       0.00       0.00       0.00      16.18    1761.38    1777.55        3.64     1.95   1.000
  S5                      1777.56       0.00       0.00       0.00      16.17    1761.38    1777.55        5.31     2.85   1.000
  S6                      1777.56       0.00       0.00       0.00      16.17    1761.38    1777.55       14.65     7.85   1.000
  S7                      1777.56       0.00       0.00       0.00      16.17    1761.38    1777.55        2.76     1.48   1.000
  S8                      1777.56       0.00       0.00       0.00      16.18    1761.38    1777.56        8.66     4.64   1.000
  S9                      1777.56       0.00       0.00       0.00      16.18    1761.38    1777.56       10.70     5.73   1.000
  S10                     1777.56       0.00       0.00       0.00       0.00    1761.38    1761.38        2.48     1.33   0.991
  S11                     1777.56       0.00       0.00       0.00      16.18    1731.61    1747.78       25.57    13.78   0.983
  S12                     1777.56       0.00       0.00       0.00      16.18    1761.38    1777.56       15.43     8.27   1.000
  S13                     1777.56       0.00       0.00       0.00       0.00    1761.38    1761.38       14.87     7.97   0.991
  S14                     1777.56       0.00       0.00       0.00      14.93    1762.62    1777.56       14.27     7.65   1.000
  S15                     1777.56       0.00       0.00       0.00      14.93    1762.62    1777.55       13.33     7.14   1.000
  S16                     1777.56       0.00       0.00       0.00      13.69    1762.50    1776.19       31.37    16.82   0.999
  S17                     1777.56       0.00       0.00       0.00      13.69    1659.52    1673.21       56.97    29.34   0.941
  S18                     1777.56       0.00       0.00       0.00      13.69    1763.85    1777.54        2.29     1.23   1.000
  S19                     1777.56       0.00       0.00       0.00      13.69       0.00      13.69        0.03     0.02   0.008
  S20                     1777.56       0.00       0.00       0.00      13.69    1763.84    1777.53        1.81     0.97   1.000
  S21                     1777.56       0.00       0.00       0.00      13.69    1752.51    1766.19       29.28    15.76   0.994
  S22                     1777.56       0.00       0.00       0.00      13.69    1763.82    1777.51        0.59     0.31   1.000
  S23                     1777.56       0.00       0.00       0.00      13.69    1763.87    1777.55        0.69     0.37   1.000
  S24                     1777.56       0.00       0.00       0.00      13.69    1763.87    1777.56        0.87     0.47   1.000
  S25                     1777.56       0.00       0.00       0.00      13.69    1763.87    1777.55        1.05     0.56   1.000
  S26                     1777.56       0.00       0.00       0.00      13.69    1763.87    1777.55        1.23     0.66   1.000
  S27                     1777.56       0.00       0.00       0.00      13.69    1763.90    1777.58       14.77     7.92   1.000
  S28                     1777.56       0.00       0.00       0.00      13.69    1754.68    1768.37       15.70     8.44   0.995
  S29                     1777.56       0.00       0.00       0.00      13.69    1763.81    1777.49        1.64     0.88   1.000
  S30                     1777.56       0.00       0.00       0.00      13.69    1622.04    1635.73      104.20    51.32   0.920
  S31                     1777.56       0.00       0.00       0.00      14.22    1763.34    1777.55       24.09    12.91   1.000
  S32                     1777.56       0.00       0.00       0.00      14.22    1763.34    1777.56        7.41     3.97   1.000
  S33                     1777.56       0.00       0.00       0.00      16.71    1760.85    1777.56        5.53     2.96   1.000
  S34                     1777.56       0.00       0.00       0.00      16.71    1760.85    1777.56        5.85     3.13   1.000
  S35                     1777.56       0.00       0.00       0.00      16.18    1761.38    1777.56        7.15     3.83   1.000
  S36                     1777.56       0.00       0.00       0.00      16.18    1761.38    1777.56        2.93     1.57   1.000
  S37                     1777.56       0.00       0.00       0.00      16.18    1761.38    1777.56        6.40     3.43   1.000
  S38                     1777.56       0.00       0.00       0.00      16.18    1761.38    1777.56        0.28     0.15   1.000
  S39                     1777.56       0.00       0.00       0.00      16.18    1761.38    1777.56        7.29     3.91   1.000
  S40                     1777.56       0.00       0.00       0.00      16.18    1761.38    1777.56        2.51     1.34   1.000
  S41                     1777.56       0.00       0.00       0.00      16.18    1761.38    1777.55        4.04     2.16   1.000
  S42                     1777.56       0.00       0.00       0.00      16.18    1761.38    1777.55        5.62     3.01   1.000
  S43                     1777.56       0.00       0.00       0.00      16.18    1761.38    1777.56       12.80     6.86   1.000
  S44                     1777.56       0.00       0.00       0.00      16.18    1761.38    1777.55        9.28     4.97   1.000
  S45                     1777.56       0.00       0.00       0.00      16.18    1761.38    1777.56        0.94     0.50   1.000
  S46                     1777.56       0.00       0.00       0.00      16.18    1761.38    1777.56        8.60     4.61   1.000
  S47                     1777.56       0.00       0.00       0.00      16.18    1761.38    1777.56       17.38     9.32   1.000
  S48                     1777.56       0.00       0.00       0.00      16.18    1761.38    1777.55       20.09    10.76   1.000
  S49                     1777.56       0.00       0.00       0.00      16.18    1761.38    1777.56       12.21     6.54   1.000
  S50                     1777.56       0.00       0.00       0.00      16.17    1761.38    1777.55       10.06     5.39   1.000
  S51                     1777.56       0.00       0.00       0.00      16.18    1761.38    1777.56        5.94     3.18   1.000
  S52                     1777.56       0.00       0.00       0.00      16.18    1761.38    1777.56       15.73     8.43   1.000
  S53                     1777.56       0.00       0.00       0.00      16.18    1753.04    1769.22       21.55    11.59   0.995
  S54                     1777.56       0.00       0.00       0.00      16.18    1761.83    1778.00        8.13     4.35   1.000
  S55                     1777.56       0.00       0.00       0.00      16.18    1761.38    1777.56        0.68     0.36   1.000
  S56                     1777.56       0.00       0.00       0.00      16.18    1761.37    1777.54        0.68     0.36   1.000
  S57                     1777.56       0.00       0.00       0.00      16.18    1761.38    1777.56        9.19     4.92   1.000
  S58                     1777.56       0.00       0.00       0.00      16.18    1761.38    1777.56       11.80     6.33   1.000
  S59                     1777.56       0.00       0.00       0.00      16.18    1761.38    1777.55       11.47     6.14   1.000
  S60                     1777.56       0.00       0.00       0.00      13.69    1764.16    1777.85        6.99     3.74   1.000
  S61                     1777.56       0.00       0.00       0.00      13.69       0.00      13.69        0.04     0.02   0.008
  S62                     1777.56       0.00       0.00       0.00      13.69    1595.00    1608.68       86.21    40.91   0.905
  S63                     1777.56       0.00       0.00       0.00      13.69    1763.87    1777.56       16.71     8.95   1.000
  S64                     1777.56       0.00       0.00       0.00      13.69    1763.87    1777.56       45.24    24.24   1.000
  S65                     1777.56       0.00       0.00       0.00      13.69    1763.87    1777.55        7.22     3.87   1.000
  S66                     1777.56       0.00       0.00       0.00      13.69    1763.87    1777.56       11.64     6.24   1.000
  S67                     1777.56       0.00       0.00       0.00      13.69    1763.87    1777.56       21.76    11.66   1.000
  S68                     1777.56       0.00       0.00       0.00      13.69    1763.87    1777.56       25.51    13.67   1.000
  S69                     1777.56       0.00       0.00       0.00      13.69       0.00      13.69        0.34     0.18   0.008
  S70                     1777.56       0.00       0.00       0.00      13.69    1751.46    1765.15       46.19    24.86   0.993
  S71                     1777.56       0.00       0.00       0.00      16.18    1761.38    1777.56       26.15    14.01   1.000
  S72                     1777.56       0.00       0.00       0.00      13.69    1763.34    1777.02        8.81     4.72   1.000
  S73                     1777.56       0.00       0.00       0.00      13.69    1763.87    1777.56       37.26    19.97   1.000
  S74                     1777.56       0.00       0.00       0.00      13.69       0.00      13.69        0.09     0.05   0.008
  S75                     1777.56       0.00       0.00       0.00      13.69    1763.87    1777.55        1.19     0.64   1.000
  S76                     1777.56       0.00       0.00       0.00      13.69    1763.87    1777.56       23.48    12.58   1.000
  S77                     1777.56       0.00       0.00       0.00      13.69    1763.87    1777.56       19.00    10.18   1.000
  S78                     1777.56       0.00       0.00       0.00      13.69    1763.87    1777.55       13.78     7.38   1.000
  S79                     1777.56       0.00       0.00       0.00      16.18    1761.38    1777.55       12.07     6.47   1.000
  S80                     1777.56       0.00       0.00       0.00      13.69    1763.91    1777.60        4.91     2.63   1.000
  S81                     1777.56       0.00       0.00       0.00      13.69    1763.87    1777.56       20.10    10.77   1.000
  S82                     1777.56       0.00       0.00       0.00      13.69    1763.87    1777.56       19.62    10.52   1.000
  S83                     1777.56       0.00       0.00       0.00      13.69    1763.87    1777.56       12.62     6.76   1.000
  S84                     1777.56       0.00       0.00       0.00      16.18    1761.38    1777.55        8.25     4.42   1.000
  S85                     1777.56       0.00       0.00       0.00      16.18    1756.98    1773.16       21.92    11.77   0.998
  S86                     1777.56       0.00       0.00       0.00       0.00    1761.38    1761.38       20.38    10.92   0.991
  S87                     1777.56       0.00       0.00       0.00      16.18    1761.38    1777.56       22.08    11.83   1.000
  S88                     1777.56       0.00       0.00       0.00      16.18    1761.38    1777.56        3.98     2.13   1.000
  S89                     1777.56       0.00       0.00       0.00      16.17    1761.38    1777.55       17.97     9.63   1.000
  S90                     1777.56       0.00       0.00       0.00       0.00    1761.38    1761.38        8.65     4.63   0.991
  S91                     1777.56       0.00       0.00       0.00      16.17    1761.38    1777.55        2.93     1.57   1.000
  
  
  ******************
  Node Depth Summary
  ******************
  
  ---------------------------------------------------------------------------------
                                 Average  Maximum  Maximum  Time of Max    Reported
                                   Depth    Depth      HGL   Occurrence   Max Depth
  Node                 Type       Meters   Meters   Meters  days hr:min      Meters
  ---------------------------------------------------------------------------------
  J7                   JUNCTION     2.49     2.50     2.50     0  00:05        2.50
  J13                  JUNCTION     2.49     2.50     2.50     0  00:05        2.50
  J19                  JUNCTION     2.49     2.50     2.50     0  00:05        2.50
  J25                  JUNCTION     2.49     2.50     2.50     0  00:05        2.50
  J1                   JUNCTION     2.49     2.50     2.50     0  00:05        2.50
  J2                   JUNCTION     2.49     2.50     2.50     0  00:05        2.50
  J3                   JUNCTION     2.49     2.50     2.50     0  00:05        2.50
  J4                   JUNCTION     2.49     2.50     2.50     0  00:05        2.50
  J5                   JUNCTION     2.49     2.50     2.50     0  00:05        2.50
  J6                   JUNCTION     2.49     2.50     2.50     0  00:05        2.50
  J8                   JUNCTION     2.49     2.50     2.50     0  00:05        2.50
  J9                   JUNCTION     2.49     2.50     2.50     0  00:05        2.50
  J10                  JUNCTION     2.49     2.50     2.50     0  00:05        2.50
  J11                  JUNCTION     2.49     2.50     2.50     0  00:05        2.50
  J12                  JUNCTION     2.49     2.50     2.50     0  00:05        2.50
  J14                  JUNCTION     2.49     2.50     2.50     0  00:05        2.50
  J15                  JUNCTION     2.49     2.50     2.50     0  00:05        2.50
  J16                  JUNCTION     2.49     2.50     2.50     0  00:05        2.50
  J17                  JUNCTION     2.49     2.50     2.50     0  00:05        2.50
  J18                  JUNCTION     2.49     2.50     2.50     0  00:05        2.50
  J20                  JUNCTION     2.49     2.50     2.50     0  00:05        2.50
  J21                  JUNCTION     2.49     2.50     2.50     0  00:05        2.50
  J22                  JUNCTION     2.49     2.50     2.50     0  00:05        2.50
  J23                  JUNCTION     2.49     2.50     2.50     0  00:05        2.50
  J24                  JUNCTION     2.49     2.50     2.50     0  00:05        2.50
  J26                  JUNCTION     2.49     2.50     2.50     0  00:05        2.50
  J27                  JUNCTION     2.49     2.50     2.50     0  00:05        2.50
  J29                  JUNCTION     2.49     2.50     2.50     0  00:05        2.50
  J30                  JUNCTION     2.49     2.50     2.50     0  00:05        2.50
  J31                  JUNCTION     2.49     2.50     2.50     0  00:05        2.50
  J33                  JUNCTION     2.49     2.50     2.50     0  00:05        2.50
  J32                  JUNCTION     2.49     2.50     2.50     0  00:05        2.50
  J28                  JUNCTION     2.49     2.50     2.50     0  00:05        2.50
  OF                   OUTFALL      1.36     1.42     1.42     0  00:05        1.37
  
  
  *******************
  Node Inflow Summary
  *******************
  
  -------------------------------------------------------------------------------------------------
                                  Maximum  Maximum                  Lateral       Total        Flow
                                  Lateral    Total  Time of Max      Inflow      Inflow     Balance
                                   Inflow   Inflow   Occurrence      Volume      Volume       Error
  Node                 Type           CMS      CMS  days hr:min    10^6 ltr    10^6 ltr     Percent
  -------------------------------------------------------------------------------------------------
  J7                   JUNCTION    56.669   56.669     0  00:10         111         111       2.650
  J13                  JUNCTION     5.434    5.434     0  00:10         9.8         9.8       4.263
  J19                  JUNCTION   257.541  257.541     0  00:10         464         464       4.162
  J25                  JUNCTION    29.336   29.336     0  00:10        54.6        54.6       1.946
  J1                   JUNCTION    21.619   21.619     0  00:10          39          39       4.315
  J2                   JUNCTION    16.242   16.242     0  00:10        29.3        29.3       2.619
  J3                   JUNCTION     0.724   47.950     0  00:05        1.31          14      32.330
  J4                   JUNCTION    47.030   47.030     0  00:10        84.8        84.8       2.195
  J5                   JUNCTION    38.885   38.885     0  00:10        70.1        70.1       3.102
  J6                   JUNCTION    17.013   17.013     0  00:10        30.7        30.7       4.315
  J8                   JUNCTION    26.178   26.178     0  00:10        47.2        47.2       4.315
  J9                   JUNCTION    11.767   11.767     0  00:10        21.2        21.2       3.652
  J10                  JUNCTION    17.566   17.566     0  00:05        31.7        31.7       4.135
  J11                  JUNCTION    18.872   19.192     0  00:05          34        34.7       3.131
  J12                  JUNCTION    19.967   19.979     0  00:05          36          36       3.159
  J14                  JUNCTION    16.918   16.918     0  00:10        30.5        30.5       4.315
  J15                  JUNCTION    24.198   24.198     0  00:10        43.5        43.5       4.089
  J16                  JUNCTION    14.013   15.704     0  00:05        25.3        27.4       3.547
  J17                  JUNCTION     0.182   14.766     0  00:05       0.329        7.34      16.842
  J18                  JUNCTION     0.638   11.690     0  00:05        1.15        5.77      16.039
  J20                  JUNCTION    47.173   47.173     0  00:10        84.9        84.9       4.136
  J21                  JUNCTION    15.616   15.616     0  00:05        28.2        28.2       4.315
  J22                  JUNCTION    32.006   32.006     0  00:10        57.5        57.5       3.919
  J23                  JUNCTION    16.820   17.362     0  00:10        30.3        31.3       2.916
  J24                  JUNCTION     2.218    2.438     0  00:05           4         4.4       4.314
  J26                  JUNCTION    13.794   13.794     0  00:05        24.9        24.9       4.315
  J27                  JUNCTION    12.098   19.517     0  00:05        21.8        25.5       0.166
  J29                  JUNCTION    19.843   20.600     0  00:05        35.8        36.9       2.533
  J30                  JUNCTION     0.000   28.977     0  00:05           0        9.49      27.931
  J31                  JUNCTION    51.322   51.322     0  00:10        99.7        99.7       1.535
  J33                  JUNCTION    19.524   19.524     0  00:10        35.2        35.2       4.313
  J32                  JUNCTION     8.907    8.907     0  00:10        16.1        16.1       4.150
  J28                  JUNCTION    14.241   17.009     0  00:05        25.7          28       3.454
  OF                   OUTFALL      0.000    7.984     0  00:05           0          21       0.000
  
  
  **********************
  Node Surcharge Summary
  **********************
  
  Surcharging occurs when water rises above the top of the highest conduit.
  ---------------------------------------------------------------------
                                               Max. Height   Min. Depth
                                   Hours       Above Crown    Below Rim
  Node                 Type      Surcharged         Meters       Meters
  ---------------------------------------------------------------------
  J7                   JUNCTION        0.83          0.850        0.000
  J13                  JUNCTION        0.83          0.850        0.000
  J19                  JUNCTION        0.83          0.850        0.000
  J25                  JUNCTION        0.83          0.850        0.000
  J1                   JUNCTION        0.83          0.850        0.000
  J2                   JUNCTION        0.83          0.850        0.000
  J3                   JUNCTION        0.83          0.850        0.000
  J4                   JUNCTION        0.83          0.850        0.000
  J5                   JUNCTION        0.83          0.850        0.000
  J6                   JUNCTION        0.83          0.850        0.000
  J8                   JUNCTION        0.83          0.850        0.000
  J9                   JUNCTION        0.83          0.850        0.000
  J10                  JUNCTION        0.83          0.850        0.000
  J11                  JUNCTION        0.83          0.850        0.000
  J12                  JUNCTION        0.83          0.850        0.000
  J14                  JUNCTION        0.83          0.850        0.000
  J15                  JUNCTION        0.83          0.850        0.000
  J16                  JUNCTION        0.83          0.850        0.000
  J17                  JUNCTION        0.83          0.850        0.000
  J18                  JUNCTION        0.83          0.850        0.000
  J20                  JUNCTION        0.83          0.850        0.000
  J21                  JUNCTION        0.83          0.850        0.000
  J22                  JUNCTION        0.83          0.850        0.000
  J23                  JUNCTION        0.83          0.850        0.000
  J24                  JUNCTION        0.83          0.850        0.000
  J26                  JUNCTION        0.83          0.850        0.000
  J27                  JUNCTION        0.83          0.850        0.000
  J29                  JUNCTION        0.83          0.850        0.000
  J30                  JUNCTION        0.83          0.850        0.000
  J31                  JUNCTION        0.83          0.850        0.000
  J33                  JUNCTION        0.83          0.850        0.000
  J32                  JUNCTION        0.83          0.850        0.000
  J28                  JUNCTION        0.83          0.850        0.000
  
  
  *********************
  Node Flooding Summary
  *********************
  
  Flooding refers to all water that overflows a node, whether it ponds or not.
  --------------------------------------------------------------------------
                                                             Total   Maximum
                                 Maximum   Time of Max       Flood    Ponded
                        Hours       Rate    Occurrence      Volume     Depth
  Node                 Flooded       CMS   days hr:min    10^6 ltr    Meters
  --------------------------------------------------------------------------
  J7                      0.83    56.323      0  00:10     110.168     0.000
  J13                     0.83     5.434      0  00:10       9.795     0.000
  J19                     0.83   250.186      0  00:10     443.231     0.000
  J25                     0.83    28.019      0  00:10      51.967     0.000
  J1                      0.83    21.619      0  00:10      38.979     0.000
  J2                      0.83    14.497      0  00:10      25.914     0.000
  J3                      0.83    39.964      0  00:05      14.044     0.000
  J4                      0.83    45.405      0  00:10      78.541     0.000
  J5                      0.83    37.548      0  00:10      66.397     0.000
  J6                      0.83    17.013      0  00:10      30.676     0.000
  J8                      0.83    26.178      0  00:10      47.198     0.000
  J9                      0.83    11.090      0  00:10      20.026     0.000
  J10                     0.83    17.028      0  00:10      30.636     0.000
  J11                     0.83    18.075      0  00:10      32.367     0.000
  J12                     0.83    18.904      0  00:10      33.750     0.000
  J14                     0.83    16.918      0  00:10      30.503     0.000
  J15                     0.83    23.771      0  00:10      42.796     0.000
  J16                     0.83    14.252      0  00:10      25.657     0.000
  J17                     0.83    13.828      0  00:05       7.344     0.000
  J18                     0.83    10.320      0  00:05       5.062     0.000
  J20                     0.83    47.156      0  00:10      84.863     0.000
  J21                     0.83    15.616      0  00:05      28.156     0.000
  J22                     0.83    31.217      0  00:10      56.070     0.000
  J23                     0.83    16.281      0  00:10      29.032     0.000
  J24                     0.83     2.438      0  00:05       4.396     0.000
  J26                     0.83    13.794      0  00:05      24.870     0.000
  J27                     0.75    12.775      0  00:08      20.547     0.000
  J29                     0.83    18.452      0  00:10      32.892     0.000
  J30                     0.83    25.659      0  00:05       9.493     0.000
  J31                     0.83    49.930      0  00:10      96.077     0.000
  J33                     0.83    19.524      0  00:10      35.204     0.000
  J32                     0.83     8.643      0  00:10      15.540     0.000
  J28                     0.83    14.554      0  00:10      25.871     0.000
  
  
  ***********************
  Outfall Loading Summary
  ***********************
  
  -----------------------------------------------------------
                         Flow       Avg       Max       Total
                         Freq      Flow      Flow      Volume
  Outfall Node           Pcnt       CMS       CMS    10^6 ltr
  -----------------------------------------------------------
  OF                   100.00     7.320     7.984      21.046
  -----------------------------------------------------------
  System               100.00     7.320     7.984      21.046
  
  
  ********************
  Link Flow Summary
  ********************
  
  -----------------------------------------------------------------------------
                                 Maximum  Time of Max   Maximum    Max/    Max/
                                  |Flow|   Occurrence   |Veloc|    Full    Full
  Link                 Type          CMS  days hr:min     m/sec    Flow   Depth
  -----------------------------------------------------------------------------
  P1                   PUMP        0.000     0  00:00                          
  C23                  CONDUIT     0.000     0  00:00      0.00    0.00    1.00
  C24                  CONDUIT     0.540     0  00:05      0.25    4.68    1.00
  C25                  CONDUIT     0.000     0  00:00      0.00    0.00    1.00
  C26                  CONDUIT     0.178     0  00:05      0.08    1.39    1.00
  C27                  CONDUIT     0.000     0  00:00      0.00    0.00    1.00
  C28                  CONDUIT     1.379     0  00:05      0.64    9.51    1.00
  C29                  CONDUIT     0.000     0  00:00      0.00    0.00    1.00
  C30                  CONDUIT     0.000     0  00:00      0.00    0.00    1.00
  C31                  CONDUIT     0.142     0  00:05      0.07    1.24    1.00
  C32                  CONDUIT     4.582     0  00:05      2.14   29.62    1.00
  C33                  CONDUIT    23.152     0  00:05     10.83  135.46    1.00
  C34                  CONDUIT     0.000     0  00:00      0.00    0.00    1.00
  C35                  CONDUIT     0.000     0  00:05      0.00    0.00    1.00
  C36                  CONDUIT     0.000     0  00:05      0.00    0.00    1.00
  C37                  CONDUIT     1.388     0  00:05      0.65    9.53    1.00
  C38                  CONDUIT     5.084     0  00:05      2.38   35.44    1.00
  C39                  CONDUIT    19.491     0  00:05      9.11  123.53    1.00
  C40                  CONDUIT     0.000     0  00:00      0.00    0.00    1.00
  C41                  CONDUIT     0.000     0  00:00      0.00    0.00    1.00
  C43                  CONDUIT     0.000     0  00:00      0.00    0.00    1.00
  C44                  CONDUIT     0.425     0  00:05      0.20    3.63    1.00
  C45                  CONDUIT    10.912     0  00:05      5.10   93.63    1.00
  C46                  CONDUIT    11.699     0  00:05      5.47   96.95    1.00
  C48                  CONDUIT     0.000     0  00:05      0.00    0.00    1.00
  C42                  CONDUIT     6.365     0  00:05      2.98   50.47    1.00
  C50                  CONDUIT     0.332     0  00:05      0.16    3.21    1.00
  C49                  CONDUIT     2.349     0  00:05      1.10   20.50    1.00
  C01                  CONDUIT     0.000     0  00:00      0.00    0.00    1.00
  C02                  CONDUIT     0.000     0  00:00      0.00    0.00    1.00
  C03                  CONDUIT     0.569     0  00:05      0.27    4.54    1.00
  C04                  CONDUIT     0.167     0  00:05      0.08    1.32    1.00
  C05                  CONDUIT     0.000     0  00:05      0.00    0.00    1.00
  C06                  CONDUIT     0.000     0  00:00      0.00    0.00    1.00
  C07                  CONDUIT     0.000     0  00:00      0.00    0.00    1.00
  C08                  CONDUIT     0.000     0  00:00      0.00    0.00    1.00
  C09                  CONDUIT     0.530     0  00:05      0.25    4.64    1.00
  C10                  CONDUIT     0.622     0  00:05      0.29    4.96    1.00
  C11                  CONDUIT     0.000     0  00:00      0.00    0.00    1.00
  C12                  CONDUIT     5.528     0  00:05      2.59   47.62    1.00
  C13                  CONDUIT     5.647     0  00:05      2.64   49.14    1.00
  C14                  CONDUIT     3.208     0  00:05      1.50   25.49    1.00
  C15                  CONDUIT     0.562     0  00:05      0.26    4.47    1.00
  C16                  CONDUIT     0.220     0  00:05      0.10    1.93    1.00
  C17                  CONDUIT     5.285     0  00:05      2.47   46.64    1.00
  C18                  CONDUIT     0.000     0  00:00      0.00    0.00    1.00
  C19                  CONDUIT     0.000     0  00:00      0.00    0.00    1.00
  C20                  CONDUIT     5.404     0  00:05      2.53   48.12    1.00
  C21                  CONDUIT     0.000     0  00:05      0.00    0.00    1.00
  C22                  CONDUIT     0.012     0  00:05      0.01    0.10    1.00
  C47                  CONDUIT     0.000     0  00:00      0.00    0.00    1.00
  Cout                 CONDUIT     7.984     0  00:05      3.85   63.04    0.93
  
  
  ***************************
  Flow Classification Summary
  ***************************
  
  -------------------------------------------------------------------------------------
                      Adjusted    ---------- Fraction of Time in Flow Class ---------- 
                       /Actual         Up    Down  Sub   Sup   Up    Down  Norm  Inlet 
  Conduit               Length    Dry  Dry   Dry   Crit  Crit  Crit  Crit  Ltd   Ctrl  
  -------------------------------------------------------------------------------------
  C23                     1.00   0.00  0.00  0.00  1.00  0.00  0.00  0.00  0.00  0.00
  C24                     1.00   0.00  0.00  0.00  1.00  0.00  0.00  0.00  0.00  0.00
  C25                     1.00   0.00  0.00  0.00  1.00  0.00  0.00  0.00  0.00  0.00
  C26                     1.00   0.00  0.00  0.00  1.00  0.00  0.00  0.00  0.00  0.00
  C27                     1.00   0.00  0.00  0.00  1.00  0.00  0.00  0.00  0.00  0.00
  C28                     1.00   0.00  0.00  0.00  1.00  0.00  0.00  0.00  0.00  0.00
  C29                     1.00   0.00  0.00  0.00  1.00  0.00  0.00  0.00  0.00  0.00
  C30                     1.00   0.00  0.00  0.00  1.00  0.00  0.00  0.00  0.00  0.00
  C31                     1.00   0.00  0.00  0.00  1.00  0.00  0.00  0.00  0.00  0.00
  C32                     1.00   0.00  0.00  0.00  1.00  0.00  0.00  0.00  0.00  0.00
  C33                     1.00   0.00  0.00  0.00  1.00  0.00  0.00  0.00  0.00  0.00
  C34                     1.00   0.00  0.00  0.00  1.00  0.00  0.00  0.00  0.00  0.00
  C35                     1.00   0.00  0.00  0.00  1.00  0.00  0.00  0.00  0.00  0.00
  C36                     1.00   0.00  0.00  0.00  1.00  0.00  0.00  0.00  0.00  0.00
  C37                     1.00   0.00  0.00  0.00  1.00  0.00  0.00  0.00  0.00  0.00
  C38                     1.00   0.00  0.00  0.00  1.00  0.00  0.00  0.00  0.00  0.00
  C39                     1.00   0.00  0.00  0.00  1.00  0.00  0.00  0.00  0.00  0.00
  C40                     1.00   0.00  0.00  0.00  1.00  0.00  0.00  0.00  0.00  0.00
  C41                     1.00   0.00  0.00  0.00  1.00  0.00  0.00  0.00  0.00  0.00
  C43                     1.00   0.00  0.00  0.00  1.00  0.00  0.00  0.00  0.00  0.00
  C44                     1.00   0.00  0.00  0.00  1.00  0.00  0.00  0.00  0.00  0.00
  C45                     1.00   0.00  0.00  0.00  1.00  0.00  0.00  0.00  0.00  0.00
  C46                     1.00   0.00  0.00  0.00  1.00  0.00  0.00  0.00  0.00  0.00
  C48                     1.00   0.00  0.00  0.00  1.00  0.00  0.00  0.00  0.00  0.00
  C42                     1.00   0.00  0.00  0.00  1.00  0.00  0.00  0.00  0.00  0.00
  C50                     1.00   0.00  0.00  0.00  1.00  0.00  0.00  0.00  0.00  0.00
  C49                     1.00   0.00  0.00  0.00  1.00  0.00  0.00  0.00  0.00  0.00
  C01                     1.00   0.00  0.00  0.00  1.00  0.00  0.00  0.00  0.00  0.00
  C02                     1.00   0.00  0.00  0.00  1.00  0.00  0.00  0.00  0.00  0.00
  C03                     1.00   0.00  0.00  0.00  1.00  0.00  0.00  0.00  0.00  0.00
  C04                     1.00   0.00  0.00  0.00  1.00  0.00  0.00  0.00  0.00  0.00
  C05                     1.00   0.00  0.00  0.00  1.00  0.00  0.00  0.00  0.00  0.00
  C06                     1.00   0.00  0.00  0.00  1.00  0.00  0.00  0.00  0.00  0.00
  C07                     1.00   0.00  0.00  0.00  1.00  0.00  0.00  0.00  0.00  0.00
  C08                     1.00   0.00  0.00  0.00  1.00  0.00  0.00  0.00  0.00  0.00
  C09                     1.00   0.00  0.00  0.00  1.00  0.00  0.00  0.00  0.00  0.00
  C10                     1.00   0.00  0.00  0.00  1.00  0.00  0.00  0.00  0.00  0.00
  C11                     1.00   0.00  0.00  0.00  1.00  0.00  0.00  0.00  0.00  0.00
  C12                     1.00   0.00  0.00  0.00  1.00  0.00  0.00  0.00  0.00  0.00
  C13                     1.00   0.00  0.00  0.00  1.00  0.00  0.00  0.00  0.00  0.00
  C14                     1.00   0.00  0.00  0.00  1.00  0.00  0.00  0.00  0.00  0.00
  C15                     1.00   0.00  0.00  0.00  1.00  0.00  0.00  0.00  0.00  0.00
  C16                     1.00   0.00  0.00  0.00  1.00  0.00  0.00  0.00  0.00  0.00
  C17                     1.00   0.00  0.00  0.00  1.00  0.00  0.00  0.00  0.00  0.00
  C18                     1.00   0.00  0.00  0.00  1.00  0.00  0.00  0.00  0.00  0.00
  C19                     1.00   0.00  0.00  0.00  1.00  0.00  0.00  0.00  0.00  0.00
  C20                     1.00   0.00  0.00  0.00  1.00  0.00  0.00  0.00  0.00  0.00
  C21                     1.00   0.00  0.00  0.00  1.00  0.00  0.00  0.00  0.00  0.00
  C22                     1.00   0.00  0.00  0.00  1.00  0.00  0.00  0.00  0.00  0.00
  C47                     1.00   0.00  0.00  0.00  1.00  0.00  0.00  0.00  0.00  0.00
  Cout                    1.00   0.00  0.00  0.00  1.00  0.00  0.00  0.00  0.00  0.00
  
  
  *************************
  Conduit Surcharge Summary
  *************************
  
  ----------------------------------------------------------------------------
                                                           Hours        Hours 
                         --------- Hours Full --------   Above Full   Capacity
  Conduit                Both Ends  Upstream  Dnstream   Normal Flow   Limited
  ----------------------------------------------------------------------------
  C23                         0.83      0.83      0.83      0.01         0.01
  C24                         0.83      0.83      0.83      0.83         0.01
  C25                         0.83      0.83      0.83      0.01         0.01
  C26                         0.83      0.83      0.83      0.32         0.01
  C27                         0.83      0.83      0.83      0.01         0.01
  C28                         0.83      0.83      0.83      0.76         0.01
  C29                         0.83      0.83      0.83      0.01         0.01
  C30                         0.83      0.83      0.83      0.01         0.01
  C31                         0.83      0.83      0.83      0.27         0.01
  C32                         0.83      0.83      0.83      0.78         0.01
  C33                         0.83      0.83      0.83      0.73         0.01
  C34                         0.83      0.83      0.83      0.01         0.01
  C35                         0.83      0.83      0.83      0.01         0.01
  C36                         0.83      0.83      0.83      0.01         0.01
  C37                         0.83      0.83      0.83      0.76         0.01
  C38                         0.83      0.83      0.83      0.83         0.08
  C39                         0.83      0.83      0.83      0.78         0.01
  C40                         0.83      0.83      0.83      0.01         0.01
  C41                         0.83      0.83      0.83      0.01         0.01
  C43                         0.83      0.83      0.83      0.01         0.01
  C44                         0.83      0.83      0.83      0.76         0.01
  C45                         0.83      0.83      0.83      0.83         0.01
  C46                         0.83      0.83      0.83      0.83         0.01
  C48                         0.83      0.83      0.83      0.01         0.01
  C42                         0.83      0.83      0.83      0.83         0.01
  C50                         0.83      0.83      0.83      0.82         0.01
  C49                         0.83      0.83      0.83      0.83         0.01
  C01                         0.83      0.83      0.83      0.01         0.01
  C02                         0.83      0.83      0.83      0.01         0.01
  C03                         0.83      0.83      0.83      0.77         0.01
  C04                         0.83      0.83      0.83      0.29         0.01
  C05                         0.83      0.83      0.83      0.01         0.01
  C06                         0.83      0.83      0.83      0.01         0.01
  C07                         0.83      0.83      0.83      0.01         0.01
  C08                         0.83      0.83      0.83      0.01         0.01
  C09                         0.83      0.83      0.83      0.83         0.01
  C10                         0.83      0.83      0.83      0.78         0.01
  C11                         0.83      0.83      0.83      0.01         0.01
  C12                         0.83      0.83      0.83      0.83         0.01
  C13                         0.83      0.83      0.83      0.83         0.01
  C14                         0.83      0.83      0.83      0.83         0.01
  C15                         0.83      0.83      0.83      0.76         0.01
  C16                         0.83      0.83      0.83      0.55         0.01
  C17                         0.83      0.83      0.83      0.83         0.01
  C18                         0.83      0.83      0.83      0.01         0.01
  C19                         0.83      0.83      0.83      0.01         0.01
  C20                         0.83      0.83      0.83      0.83         0.01
  C21                         0.83      0.83      0.83      0.01         0.01
  C22                         0.83      0.83      0.83      0.01         0.01
  C47                         0.83      0.83      0.83      0.01         0.01
  Cout                        0.01      0.83      0.01      0.83         0.01
  
  
  ***************
  Pumping Summary
  ***************
  
  ---------------------------------------------------------------------------------------------------------
                                                  Min       Avg       Max     Total     Power    % Time Off
                        Percent   Number of      Flow      Flow      Flow    Volume     Usage    Pump Curve
  Pump                 Utilized   Start-Ups       CMS       CMS       CMS  10^6 ltr     Kw-hr    Low   High
  ---------------------------------------------------------------------------------------------------------
  P1                       0.00           0      0.00      0.00      0.00     0.000      0.00    0.0    0.0
  

  Analysis begun on:  Mon Nov 18 19:49:42 2024
  Analysis ended on:  Mon Nov 18 19:49:43 2024
  Total elapsed time: 00:00:01