
  EPA STORM WATER MANAGEMENT MODEL - VERSION 5.2 (Build 5.2.4)
  PYSWMM TOOLKIT API - VERSION v1.0 (2023-11-27)
  ------------------------------------------------------------

  WARNING 04: minimum elevation drop used for Conduit C23
  WARNING 04: minimum elevation drop used for Conduit C24
  WARNING 04: minimum elevation drop used for Conduit C25
  WARNING 04: minimum elevation drop used for Conduit C26
  WARNING 04: minimum elevation drop used for Conduit C27
  WARNING 04: minimum elevation drop used for Conduit C28
  WARNING 04: minimum elevation drop used for Conduit C29
  WARNING 04: minimum elevation drop used for Conduit C30
  WARNING 04: minimum elevation drop used for Conduit C31
  WARNING 04: minimum elevation drop used for Conduit C32
  WARNING 04: minimum elevation drop used for Conduit C33
  WARNING 04: minimum elevation drop used for Conduit C34
  WARNING 04: minimum elevation drop used for Conduit C35
  WARNING 04: minimum elevation drop used for Conduit C36
  WARNING 04: minimum elevation drop used for Conduit C37
  WARNING 04: minimum elevation drop used for Conduit C38
  WARNING 04: minimum elevation drop used for Conduit C39
  WARNING 04: minimum elevation drop used for Conduit C40
  WARNING 04: minimum elevation drop used for Conduit C41
  WARNING 04: minimum elevation drop used for Conduit C43
  WARNING 04: minimum elevation drop used for Conduit C44
  WARNING 04: minimum elevation drop used for Conduit C45
  WARNING 04: minimum elevation drop used for Conduit C46
  WARNING 04: minimum elevation drop used for Conduit C48
  WARNING 04: minimum elevation drop used for Conduit C42
  WARNING 04: minimum elevation drop used for Conduit C50
  WARNING 04: minimum elevation drop used for Conduit C49
  WARNING 04: minimum elevation drop used for Conduit C01
  WARNING 04: minimum elevation drop used for Conduit C02
  WARNING 04: minimum elevation drop used for Conduit C03
  WARNING 04: minimum elevation drop used for Conduit C04
  WARNING 04: minimum elevation drop used for Conduit C05
  WARNING 04: minimum elevation drop used for Conduit C06
  WARNING 04: minimum elevation drop used for Conduit C07
  WARNING 04: minimum elevation drop used for Conduit C08
  WARNING 04: minimum elevation drop used for Conduit C09
  WARNING 04: minimum elevation drop used for Conduit C10
  WARNING 04: minimum elevation drop used for Conduit C11
  WARNING 04: minimum elevation drop used for Conduit C12
  WARNING 04: minimum elevation drop used for Conduit C13
  WARNING 04: minimum elevation drop used for Conduit C14
  WARNING 04: minimum elevation drop used for Conduit C15
  WARNING 04: minimum elevation drop used for Conduit C16
  WARNING 04: minimum elevation drop used for Conduit C17
  WARNING 04: minimum elevation drop used for Conduit C18
  WARNING 04: minimum elevation drop used for Conduit C19
  WARNING 04: minimum elevation drop used for Conduit C20
  WARNING 04: minimum elevation drop used for Conduit C21
  WARNING 04: minimum elevation drop used for Conduit C22
  WARNING 04: minimum elevation drop used for Conduit C47
  WARNING 04: minimum elevation drop used for Conduit Cout
  
  ****************
  Analysis Options
  ****************
  Flow Units ............... CMS
  Process Models:
    Rainfall/Runoff ........ YES
    RDII ................... NO
    Snowmelt ............... NO
    Groundwater ............ NO
    Flow Routing ........... YES
    Ponding Allowed ........ NO
    Water Quality .......... NO
  Infiltration Method ...... HORTON
  Flow Routing Method ...... DYNWAVE
  Surcharge Method ......... EXTRAN
  Starting Date ............ 08/26/2022 12:00:00
  Ending Date .............. 08/26/2022 12:50:00
  Antecedent Dry Days ...... 0.0
  Report Time Step ......... 00:10:00
  Wet Time Step ............ 00:05:00
  Dry Time Step ............ 01:00:00
  Routing Time Step ........ 300.00 sec
  Variable Time Step ....... YES
  Maximum Trials ........... 8
  Number of Threads ........ 1
  Head Tolerance ........... 0.001524 m
  
  
  *********************
  Rainfall File Summary
  *********************
  Station    First        Last         Recording   Periods    Periods    Periods
  ID         Date         Date         Frequency  w/Precip    Missing    Malfunc.
  -------------------------------------------------------------------------------
  118        08/26/2022   08/26/2022      10 min         6          0          0

  
  
  **************************        Volume         Depth
  Runoff Quantity Continuity     hectare-m            mm
  **************************     ---------       -------
  Total Precipitation ......       284.369      2843.805
  Evaporation Loss .........         0.000         0.000
  Infiltration Loss ........         0.000         0.000
  Surface Runoff ...........       270.434      2704.450
  Final Storage ............        17.575       175.755
  Continuity Error (%) .....        -1.280
  
  
  **************************        Volume        Volume
  Flow Routing Continuity        hectare-m      10^6 ltr
  **************************     ---------     ---------
  Dry Weather Inflow .......         0.000         0.000
  Wet Weather Inflow .......       255.899      2559.019
  Groundwater Inflow .......         0.000         0.000
  RDII Inflow ..............         0.000         0.000
  External Inflow ..........         0.000         0.000
  External Outflow .........         2.105        21.046
  Flooding Loss ............       246.938      2469.409
  Evaporation Loss .........         0.000         0.000
  Exfiltration Loss ........         0.000         0.000
  Initial Stored Volume ....         0.046         0.463
  Final Stored Volume ......         1.883        18.831
  Continuity Error (%) .....         1.961
  
  
  *************************
  Highest Continuity Errors
  *************************
  Node J30 (21.83%)
  Node J3 (19.85%)
  Node J17 (14.07%)
  Node J18 (12.44%)
  Node J21 (2.89%)
  
  
  ***************************
  Time-Step Critical Elements
  ***************************
  Link Cout (98.98%)
  
  
  ********************************
  Highest Flow Instability Indexes
  ********************************
  Link C24 (2)
  Link C31 (2)
  Link C33 (2)
  Link C46 (2)
  Link C49 (2)
  
  
  *********************************
  Most Frequent Nonconverging Nodes
  *********************************
  Convergence obtained at all time steps.
  
  
  *************************
  Routing Time Step Summary
  *************************
  Minimum Time Step           :     4.82 sec
  Average Time Step           :    15.30 sec
  Maximum Time Step           :   300.00 sec
  % of Time in Steady State   :     0.00
  Average Iterations per Step :     2.02
  % of Steps Not Converging   :     0.00
  Time Step Frequencies       :
     300.000 - 83.462 sec      :     0.51 %
     83.462 - 23.220 sec      :     0.00 %
     23.220 -  6.460 sec      :    98.46 %
      6.460 -  1.797 sec      :     1.03 %
      1.797 -  0.500 sec      :     0.00 %
  
  
  ***************************
  Subcatchment Runoff Summary
  ***************************
  
  ------------------------------------------------------------------------------------------------------------------------------
                            Total      Total      Total      Total     Imperv       Perv      Total       Total     Peak  Runoff
                           Precip      Runon       Evap      Infil     Runoff     Runoff     Runoff      Runoff   Runoff   Coeff
  Subcatchment                 mm         mm         mm         mm         mm         mm         mm    10^6 ltr      CMS
  ------------------------------------------------------------------------------------------------------------------------------
  S1                      2843.81       0.00       0.00       0.00      28.15    2815.65    2843.80      717.38   267.00   1.000
  S2                      2843.81       0.00       0.00       0.00      25.88    2817.62    2843.50       22.09     8.22   1.000
  S3                      2843.81       0.00       0.00       0.00      25.88    2817.93    2843.80        5.89     2.19   1.000
  S4                      2843.81       0.00       0.00       0.00      25.88    2817.93    2843.80        5.83     2.17   1.000
  S5                      2843.81       0.00       0.00       0.00      25.88    2817.93    2843.81        8.50     3.16   1.000
  S6                      2843.81       0.00       0.00       0.00      25.88    2817.93    2843.80       23.43     8.72   1.000
  S7                      2843.81       0.00       0.00       0.00      25.88    2817.93    2843.80        4.41     1.64   1.000
  S8                      2843.81       0.00       0.00       0.00      25.88    2817.93    2843.80       13.85     5.15   1.000
  S9                      2843.81       0.00       0.00       0.00      25.88    2817.93    2843.81       17.12     6.37   1.000
  S10                     2843.81       0.00       0.00       0.00       0.00    2817.93    2817.93        3.97     1.48   0.991
  S11                     2843.81       0.00       0.00       0.00      25.88    2769.38    2795.25       40.89    15.48   0.983
  S12                     2843.81       0.00       0.00       0.00      25.88    2817.93    2843.80       24.68     9.19   1.000
  S13                     2843.81       0.00       0.00       0.00       0.00    2817.93    2817.93       23.78     8.85   0.991
  S14                     2843.81       0.00       0.00       0.00      23.89    2819.92    2843.80       22.84     8.50   1.000
  S15                     2843.81       0.00       0.00       0.00      23.89    2819.92    2843.80       21.33     7.94   1.000
  S16                     2843.81       0.00       0.00       0.00      21.90    2816.47    2838.37       50.13    18.69   0.998
  S17                     2843.81       0.00       0.00       0.00      21.90    2667.36    2689.26       91.57    35.93   0.946
  S18                     2843.81       0.00       0.00       0.00      21.90    2821.81    2843.71        3.67     1.37   1.000
  S19                     2843.81       0.00       0.00       0.00      21.90       0.00      21.90        0.05     0.02   0.008
  S20                     2843.81       0.00       0.00       0.00      21.90    2821.83    2843.72        2.90     1.08   1.000
  S21                     2843.81       0.00       0.00       0.00      21.90    2800.30    2822.20       46.79    17.55   0.992
  S22                     2843.81       0.00       0.00       0.00      21.90    2821.87    2843.76        0.94     0.35   1.000
  S23                     2843.81       0.00       0.00       0.00      21.90    2821.91    2843.80        1.11     0.41   1.000
  S24                     2843.81       0.00       0.00       0.00      21.90    2821.91    2843.80        1.39     0.52   1.000
  S25                     2843.81       0.00       0.00       0.00      21.90    2821.91    2843.80        1.68     0.62   1.000
  S26                     2843.81       0.00       0.00       0.00      21.90    2821.91    2843.81        1.96     0.73   1.000
  S27                     2843.81       0.00       0.00       0.00      21.90    2821.90    2843.80       23.63     8.80   1.000
  S28                     2843.81       0.00       0.00       0.00      21.90    2803.62    2825.51       25.09     9.40   0.994
  S29                     2843.81       0.00       0.00       0.00      21.90    2821.89    2843.79        2.62     0.97   1.000
  S30                     2843.81       0.00       0.00       0.00      21.90    2614.40    2636.29      167.93    67.05   0.927
  S31                     2843.81       0.00       0.00       0.00      22.75    2821.05    2843.80       38.53    14.34   1.000
  S32                     2843.81       0.00       0.00       0.00      22.75    2821.05    2843.80       11.86     4.41   1.000
  S33                     2843.81       0.00       0.00       0.00      26.73    2817.07    2843.80        8.84     3.29   1.000
  S34                     2843.81       0.00       0.00       0.00      26.73    2817.07    2843.81        9.36     3.48   1.000
  S35                     2843.81       0.00       0.00       0.00      25.88    2817.93    2843.80       11.43     4.25   1.000
  S36                     2843.81       0.00       0.00       0.00      25.88    2817.93    2843.81        4.69     1.75   1.000
  S37                     2843.81       0.00       0.00       0.00      25.88    2817.93    2843.80       10.24     3.81   1.000
  S38                     2843.81       0.00       0.00       0.00      25.88    2817.93    2843.81        0.46     0.17   1.000
  S39                     2843.81       0.00       0.00       0.00      25.88    2817.93    2843.80       11.66     4.34   1.000
  S40                     2843.81       0.00       0.00       0.00      25.88    2817.93    2843.81        4.01     1.49   1.000
  S41                     2843.81       0.00       0.00       0.00      25.88    2817.93    2843.80        6.46     2.40   1.000
  S42                     2843.81       0.00       0.00       0.00      25.88    2817.93    2843.80        8.99     3.34   1.000
  S43                     2843.81       0.00       0.00       0.00      25.88    2817.93    2843.80       20.48     7.62   1.000
  S44                     2843.81       0.00       0.00       0.00      25.88    2817.93    2843.80       14.84     5.53   1.000
  S45                     2843.81       0.00       0.00       0.00      25.88    2817.93    2843.80        1.51     0.56   1.000
  S46                     2843.81       0.00       0.00       0.00      25.88    2817.93    2843.80       13.76     5.12   1.000
  S47                     2843.81       0.00       0.00       0.00      25.88    2817.93    2843.80       27.81    10.35   1.000
  S48                     2843.81       0.00       0.00       0.00      25.88    2817.93    2843.80       32.14    11.96   1.000
  S49                     2843.81       0.00       0.00       0.00      25.88    2817.93    2843.80       19.54     7.27   1.000
  S50                     2843.81       0.00       0.00       0.00      25.88    2817.93    2843.81       16.10     5.99   1.000
  S51                     2843.81       0.00       0.00       0.00      25.88    2817.93    2843.80        9.50     3.54   1.000
  S52                     2843.81       0.00       0.00       0.00      25.88    2817.93    2843.80       25.17     9.37   1.000
  S53                     2843.81       0.00       0.00       0.00      25.88    2800.95    2826.83       34.43    12.89   0.994
  S54                     2843.81       0.00       0.00       0.00      25.88    2817.15    2843.03       12.99     4.84   1.000
  S55                     2843.81       0.00       0.00       0.00      25.88    2817.93    2843.81        1.08     0.40   1.000
  S56                     2843.81       0.00       0.00       0.00      25.88    2817.89    2843.77        1.08     0.40   1.000
  S57                     2843.81       0.00       0.00       0.00      25.88    2817.93    2843.80       14.70     5.47   1.000
  S58                     2843.81       0.00       0.00       0.00      25.88    2817.93    2843.80       18.88     7.03   1.000
  S59                     2843.81       0.00       0.00       0.00      25.88    2817.93    2843.80       18.34     6.83   1.000
  S60                     2843.81       0.00       0.00       0.00      21.90    2821.73    2843.63       11.18     4.16   1.000
  S61                     2843.81       0.00       0.00       0.00      21.90       0.00      21.90        0.07     0.03   0.008
  S62                     2843.81       0.00       0.00       0.00      21.90    2576.20    2598.10      139.23    56.28   0.914
  S63                     2843.81       0.00       0.00       0.00      21.90    2821.91    2843.80       26.73     9.95   1.000
  S64                     2843.81       0.00       0.00       0.00      21.90    2821.91    2843.80       72.38    26.94   1.000
  S65                     2843.81       0.00       0.00       0.00      21.90    2821.91    2843.81       11.55     4.30   1.000
  S66                     2843.81       0.00       0.00       0.00      21.90    2821.91    2843.80       18.63     6.93   1.000
  S67                     2843.81       0.00       0.00       0.00      21.90    2821.91    2843.80       34.81    12.96   1.000
  S68                     2843.81       0.00       0.00       0.00      21.90    2821.91    2843.80       40.81    15.19   1.000
  S69                     2843.81       0.00       0.00       0.00      21.90       0.00      21.90        0.54     0.20   0.008
  S70                     2843.81       0.00       0.00       0.00      21.90    2798.73    2820.63       73.82    27.70   0.992
  S71                     2843.81       0.00       0.00       0.00      25.88    2817.93    2843.80       41.83    15.57   1.000
  S72                     2843.81       0.00       0.00       0.00      21.90    2818.15    2840.05       14.09     5.25   0.999
  S73                     2843.81       0.00       0.00       0.00      21.90    2821.91    2843.80       59.61    22.19   1.000
  S74                     2843.81       0.00       0.00       0.00      21.90       0.00      21.90        0.14     0.05   0.008
  S75                     2843.81       0.00       0.00       0.00      21.90    2821.91    2843.80        1.91     0.71   1.000
  S76                     2843.81       0.00       0.00       0.00      21.90    2821.91    2843.80       37.57    13.98   1.000
  S77                     2843.81       0.00       0.00       0.00      21.90    2821.91    2843.80       30.40    11.31   1.000
  S78                     2843.81       0.00       0.00       0.00      21.90    2821.91    2843.81       22.04     8.20   1.000
  S79                     2843.81       0.00       0.00       0.00      25.88    2817.93    2843.80       19.31     7.19   1.000
  S80                     2843.81       0.00       0.00       0.00      21.90    2821.89    2843.79        7.85     2.92   1.000
  S81                     2843.81       0.00       0.00       0.00      21.90    2821.91    2843.81       32.16    11.97   1.000
  S82                     2843.81       0.00       0.00       0.00      21.90    2821.91    2843.80       31.40    11.69   1.000
  S83                     2843.81       0.00       0.00       0.00      21.90    2821.91    2843.80       20.19     7.52   1.000
  S84                     2843.81       0.00       0.00       0.00      25.88    2817.93    2843.80       13.20     4.91   1.000
  S85                     2843.81       0.00       0.00       0.00      25.88    2807.20    2833.08       35.02    13.08   0.996
  S86                     2843.81       0.00       0.00       0.00       0.00    2817.93    2817.93       32.60    12.13   0.991
  S87                     2843.81       0.00       0.00       0.00      25.88    2817.93    2843.80       35.32    13.15   1.000
  S88                     2843.81       0.00       0.00       0.00      25.88    2817.93    2843.81        6.37     2.37   1.000
  S89                     2843.81       0.00       0.00       0.00      25.88    2817.93    2843.80       28.75    10.70   1.000
  S90                     2843.81       0.00       0.00       0.00       0.00    2817.93    2817.93       13.84     5.15   0.991
  S91                     2843.81       0.00       0.00       0.00      25.88    2817.93    2843.80        4.69     1.75   1.000
  
  
  ******************
  Node Depth Summary
  ******************
  
  ---------------------------------------------------------------------------------
                                 Average  Maximum  Maximum  Time of Max    Reported
                                   Depth    Depth      HGL   Occurrence   Max Depth
  Node                 Type       Meters   Meters   Meters  days hr:min      Meters
  ---------------------------------------------------------------------------------
  J7                   JUNCTION     2.49     2.50     2.50     0  00:05        2.50
  J13                  JUNCTION     2.49     2.50     2.50     0  00:05        2.50
  J19                  JUNCTION     2.49     2.50     2.50     0  00:05        2.50
  J25                  JUNCTION     2.49     2.50     2.50     0  00:05        2.50
  J1                   JUNCTION     2.49     2.50     2.50     0  00:05        2.50
  J2                   JUNCTION     2.49     2.50     2.50     0  00:05        2.50
  J3                   JUNCTION     2.49     2.50     2.50     0  00:05        2.50
  J4                   JUNCTION     2.49     2.50     2.50     0  00:05        2.50
  J5                   JUNCTION     2.49     2.50     2.50     0  00:05        2.50
  J6                   JUNCTION     2.49     2.50     2.50     0  00:05        2.50
  J8                   JUNCTION     2.49     2.50     2.50     0  00:05        2.50
  J9                   JUNCTION     2.49     2.50     2.50     0  00:05        2.50
  J10                  JUNCTION     2.49     2.50     2.50     0  00:05        2.50
  J11                  JUNCTION     2.49     2.50     2.50     0  00:05        2.50
  J12                  JUNCTION     2.49     2.50     2.50     0  00:05        2.50
  J14                  JUNCTION     2.49     2.50     2.50     0  00:05        2.50
  J15                  JUNCTION     2.49     2.50     2.50     0  00:05        2.50
  J16                  JUNCTION     2.49     2.50     2.50     0  00:05        2.50
  J17                  JUNCTION     2.49     2.50     2.50     0  00:05        2.50
  J18                  JUNCTION     2.49     2.50     2.50     0  00:05        2.50
  J20                  JUNCTION     2.49     2.50     2.50     0  00:05        2.50
  J21                  JUNCTION     2.49     2.50     2.50     0  00:05        2.50
  J22                  JUNCTION     2.49     2.50     2.50     0  00:05        2.50
  J23                  JUNCTION     2.49     2.50     2.50     0  00:05        2.50
  J24                  JUNCTION     2.49     2.50     2.50     0  00:05        2.50
  J26                  JUNCTION     2.49     2.50     2.50     0  00:05        2.50
  J27                  JUNCTION     2.49     2.50     2.50     0  00:05        2.50
  J29                  JUNCTION     2.49     2.50     2.50     0  00:05        2.50
  J30                  JUNCTION     2.49     2.50     2.50     0  00:05        2.50
  J31                  JUNCTION     2.49     2.50     2.50     0  00:05        2.50
  J33                  JUNCTION     2.49     2.50     2.50     0  00:05        2.50
  J32                  JUNCTION     2.49     2.50     2.50     0  00:05        2.50
  J28                  JUNCTION     2.49     2.50     2.50     0  00:05        2.50
  OF                   OUTFALL      1.36     1.42     1.42     0  00:05        1.37
  
  
  *******************
  Node Inflow Summary
  *******************
  
  -------------------------------------------------------------------------------------------------
                                  Maximum  Maximum                  Lateral       Total        Flow
                                  Lateral    Total  Time of Max      Inflow      Inflow     Balance
                                   Inflow   Inflow   Occurrence      Volume      Volume       Error
  Node                 Type           CMS      CMS  days hr:min    10^6 ltr    10^6 ltr     Percent
  -------------------------------------------------------------------------------------------------
  J7                   JUNCTION    73.828   73.828     0  00:40         175         175       1.912
  J13                  JUNCTION     6.039    6.039     0  00:40        15.4        15.4       2.951
  J19                  JUNCTION   286.173  286.173     0  00:40         728         728       2.884
  J25                  JUNCTION    35.928   36.034     0  00:40        86.3        86.7       1.479
  J1                   JUNCTION    24.021   24.021     0  00:35        61.1        61.1       2.980
  J2                   JUNCTION    18.047   18.047     0  00:40        45.9        45.9       2.481
  J3                   JUNCTION     0.804   32.713     0  00:05        2.05        11.8      24.768
  J4                   JUNCTION    52.256   52.256     0  00:35         133         133       1.675
  J5                   JUNCTION    43.206   43.206     0  00:40         110         110       2.226
  J6                   JUNCTION    18.904   18.904     0  00:35        48.1        48.1       2.979
  J8                   JUNCTION    29.086   29.086     0  00:35          74          74       2.980
  J9                   JUNCTION    13.082   13.082     0  00:40        33.2        33.2       2.591
  J10                  JUNCTION    19.518   19.518     0  00:40        49.7        49.7       2.885
  J11                  JUNCTION    20.969   21.130     0  00:35        53.4        53.9       2.244
  J12                  JUNCTION    22.185   22.185     0  00:35        56.5        56.5       2.254
  J14                  JUNCTION    18.798   18.798     0  00:35        47.8        47.8       2.980
  J15                  JUNCTION    26.905   26.905     0  00:40        68.3        68.3       2.848
  J16                  JUNCTION    15.570   16.181     0  00:05        39.6        41.7       2.532
  J17                  JUNCTION     0.203   14.855     0  00:05       0.516        7.57      16.374
  J18                  JUNCTION     0.709   11.730     0  00:05        1.81        6.43      14.202
  J20                  JUNCTION    52.587   52.587     0  00:40         133         133       2.869
  J21                  JUNCTION    17.351   17.351     0  00:35        44.2        44.2       2.980
  J22                  JUNCTION    35.636   35.636     0  00:40        90.1        90.1       2.749
  J23                  JUNCTION    18.692   18.953     0  00:35        47.5        48.6       2.127
  J24                  JUNCTION     2.464    2.464     0  00:40        6.27        6.27       2.674
  J26                  JUNCTION    15.326   15.326     0  00:40          39          39       2.980
  J27                  JUNCTION    13.442   15.459     0  00:05        34.2        36.5       2.419
  J29                  JUNCTION    22.048   22.307     0  00:35        56.1        57.1       2.025
  J30                  JUNCTION     0.000   28.980     0  00:05           0        9.49      27.932
  J31                  JUNCTION    67.048   67.048     0  00:40         158         158       1.202
  J33                  JUNCTION    21.693   21.693     0  00:35        55.2        55.2       2.979
  J32                  JUNCTION     9.897    9.897     0  00:40        25.2        25.2       2.893
  J28                  JUNCTION    15.824   17.480     0  00:05        40.3        42.5       2.482
  OF                   OUTFALL      0.000    7.984     0  00:05           0          21       0.000
  
  
  **********************
  Node Surcharge Summary
  **********************
  
  Surcharging occurs when water rises above the top of the highest conduit.
  ---------------------------------------------------------------------
                                               Max. Height   Min. Depth
                                   Hours       Above Crown    Below Rim
  Node                 Type      Surcharged         Meters       Meters
  ---------------------------------------------------------------------
  J7                   JUNCTION        0.83          0.850        0.000
  J13                  JUNCTION        0.83          0.850        0.000
  J19                  JUNCTION        0.83          0.850        0.000
  J25                  JUNCTION        0.83          0.850        0.000
  J1                   JUNCTION        0.83          0.850        0.000
  J2                   JUNCTION        0.83          0.850        0.000
  J3                   JUNCTION        0.83          0.850        0.000
  J4                   JUNCTION        0.83          0.850        0.000
  J5                   JUNCTION        0.83          0.850        0.000
  J6                   JUNCTION        0.83          0.850        0.000
  J8                   JUNCTION        0.83          0.850        0.000
  J9                   JUNCTION        0.83          0.850        0.000
  J10                  JUNCTION        0.83          0.850        0.000
  J11                  JUNCTION        0.83          0.850        0.000
  J12                  JUNCTION        0.83          0.850        0.000
  J14                  JUNCTION        0.83          0.850        0.000
  J15                  JUNCTION        0.83          0.850        0.000
  J16                  JUNCTION        0.83          0.850        0.000
  J17                  JUNCTION        0.83          0.850        0.000
  J18                  JUNCTION        0.83          0.850        0.000
  J20                  JUNCTION        0.83          0.850        0.000
  J21                  JUNCTION        0.83          0.850        0.000
  J22                  JUNCTION        0.83          0.850        0.000
  J23                  JUNCTION        0.83          0.850        0.000
  J24                  JUNCTION        0.83          0.850        0.000
  J26                  JUNCTION        0.83          0.850        0.000
  J27                  JUNCTION        0.83          0.850        0.000
  J29                  JUNCTION        0.83          0.850        0.000
  J30                  JUNCTION        0.83          0.850        0.000
  J31                  JUNCTION        0.83          0.850        0.000
  J33                  JUNCTION        0.83          0.850        0.000
  J32                  JUNCTION        0.83          0.850        0.000
  J28                  JUNCTION        0.83          0.850        0.000
  
  
  *********************
  Node Flooding Summary
  *********************
  
  Flooding refers to all water that overflows a node, whether it ponds or not.
  --------------------------------------------------------------------------
                                                             Total   Maximum
                                 Maximum   Time of Max       Flood    Ponded
                        Hours       Rate    Occurrence      Volume     Depth
  Node                 Flooded       CMS   days hr:min    10^6 ltr    Meters
  --------------------------------------------------------------------------
  J7                      0.83    73.813      0  00:40     175.073     0.000
  J13                     0.83     6.039      0  00:40      15.351     0.000
  J19                     0.83   278.822      0  00:40     707.187     0.000
  J25                     0.83    35.735      0  00:40      83.921     0.000
  J1                      0.83    24.021      0  00:35      61.142     0.000
  J2                      0.83    17.711      0  00:40      43.554     0.000
  J3                      0.83    27.916      0  00:05      11.814     0.000
  J4                      0.83    51.943      0  00:40     126.873     0.000
  J5                      0.83    42.957      0  00:40     106.345     0.000
  J6                      0.83    18.904      0  00:35      48.116     0.000
  J8                      0.83    29.086      0  00:35      74.034     0.000
  J9                      0.83    12.917      0  00:40      32.054     0.000
  J10                     0.83    19.310      0  00:40      48.775     0.000
  J11                     0.83    20.940      0  00:40      51.630     0.000
  J12                     0.83    21.980      0  00:40      54.120     0.000
  J14                     0.83    18.798      0  00:35      47.847     0.000
  J15                     0.83    26.763      0  00:40      67.553     0.000
  J16                     0.83    15.824      0  00:35      39.912     0.000
  J17                     0.83    13.913      0  00:05       7.574     0.000
  J18                     0.83    10.307      0  00:05       5.683     0.000
  J20                     0.83    52.586      0  00:40     133.121     0.000
  J21                     0.83    17.351      0  00:35      44.165     0.000
  J22                     0.83    35.363      0  00:40      88.766     0.000
  J23                     0.83    18.754      0  00:40      46.266     0.000
  J24                     0.83     2.358      0  00:40       5.847     0.000
  J26                     0.83    15.326      0  00:40      39.011     0.000
  J27                     0.83    13.610      0  00:35      34.411     0.000
  J29                     0.83    21.937      0  00:40      53.602     0.000
  J30                     0.83    25.662      0  00:05       9.494     0.000
  J31                     0.83    66.845      0  00:40     154.366     0.000
  J33                     0.83    21.693      0  00:35      55.214     0.000
  J32                     0.83     9.784      0  00:40      24.724     0.000
  J28                     0.83    15.989      0  00:35      40.417     0.000
  
  
  ***********************
  Outfall Loading Summary
  ***********************
  
  -----------------------------------------------------------
                         Flow       Avg       Max       Total
                         Freq      Flow      Flow      Volume
  Outfall Node           Pcnt       CMS       CMS    10^6 ltr
  -----------------------------------------------------------
  OF                   100.00     7.320     7.984      21.046
  -----------------------------------------------------------
  System               100.00     7.320     7.984      21.046
  
  
  ********************
  Link Flow Summary
  ********************
  
  -----------------------------------------------------------------------------
                                 Maximum  Time of Max   Maximum    Max/    Max/
                                  |Flow|   Occurrence   |Veloc|    Full    Full
  Link                 Type          CMS  days hr:min     m/sec    Flow   Depth
  -----------------------------------------------------------------------------
  P1                   PUMP        0.000     0  00:00                          
  C23                  CONDUIT     0.000     0  00:00      0.00    0.00    1.00
  C24                  CONDUIT     0.493     0  00:05      0.23    4.27    1.00
  C25                  CONDUIT     0.000     0  00:00      0.00    0.00    1.00
  C26                  CONDUIT     0.115     0  00:05      0.05    0.90    1.00
  C27                  CONDUIT     0.000     0  00:00      0.00    0.00    1.00
  C28                  CONDUIT     1.299     0  00:05      0.61    8.95    1.00
  C29                  CONDUIT     0.000     0  00:00      0.00    0.00    1.00
  C30                  CONDUIT     0.000     0  00:00      0.00    0.00    1.00
  C31                  CONDUIT     0.092     0  00:05      0.04    0.80    1.00
  C32                  CONDUIT     4.526     0  00:05      2.12   29.25    1.00
  C33                  CONDUIT    22.810     0  00:05     10.67  133.46    1.00
  C34                  CONDUIT     0.000     0  00:00      0.00    0.00    1.00
  C35                  CONDUIT     0.000     0  00:05      0.00    0.00    1.00
  C36                  CONDUIT     0.000     0  00:05      0.00    0.00    1.00
  C37                  CONDUIT     1.307     0  00:05      0.61    8.97    1.00
  C38                  CONDUIT     1.710     0  00:05      0.80   11.92    1.00
  C39                  CONDUIT     4.622     0  00:05      2.16   29.29    1.00
  C40                  CONDUIT     0.000     0  00:00      0.00    0.00    1.00
  C41                  CONDUIT     0.000     0  00:00      0.00    0.00    1.00
  C43                  CONDUIT     0.000     0  00:00      0.00    0.00    1.00
  C44                  CONDUIT     0.359     0  00:05      0.17    3.07    1.00
  C45                  CONDUIT    10.912     0  00:05      5.10   93.63    1.00
  C46                  CONDUIT    11.699     0  00:05      5.47   96.95    1.00
  C48                  CONDUIT     0.000     0  00:05      0.00    0.00    1.00
  C42                  CONDUIT     6.369     0  00:05      2.98   50.50    1.00
  C50                  CONDUIT     0.281     0  00:05      0.13    2.71    1.00
  C49                  CONDUIT     1.127     0  00:05      0.53    9.83    1.00
  C01                  CONDUIT     0.000     0  00:00      0.00    0.00    1.00
  C02                  CONDUIT     0.000     0  00:00      0.00    0.00    1.00
  C03                  CONDUIT     0.495     0  00:05      0.23    3.95    1.00
  C04                  CONDUIT     0.259     0  00:05      0.12    2.03    1.00
  C05                  CONDUIT     0.245     0  00:05      0.11    1.95    1.00
  C06                  CONDUIT     0.000     0  00:00      0.00    0.00    1.00
  C07                  CONDUIT     0.000     0  00:00      0.00    0.00    1.00
  C08                  CONDUIT     0.000     0  00:00      0.00    0.00    1.00
  C09                  CONDUIT     0.484     0  00:05      0.23    4.24    1.00
  C10                  CONDUIT     0.569     0  00:05      0.27    4.54    1.00
  C11                  CONDUIT     0.000     0  00:00      0.00    0.00    1.00
  C12                  CONDUIT     5.537     0  00:05      2.59   47.70    1.00
  C13                  CONDUIT     5.655     0  00:05      2.64   49.21    1.00
  C14                  CONDUIT     3.220     0  00:05      1.51   25.58    1.00
  C15                  CONDUIT     0.615     0  00:05      0.29    4.88    1.00
  C16                  CONDUIT     0.000     0  00:00      0.00    0.00    1.00
  C17                  CONDUIT     5.293     0  00:05      2.48   46.71    1.00
  C18                  CONDUIT     0.000     0  00:00      0.00    0.00    1.00
  C19                  CONDUIT     0.000     0  00:00      0.00    0.00    1.00
  C20                  CONDUIT     5.409     0  00:05      2.53   48.16    1.00
  C21                  CONDUIT     0.000     0  00:05      0.00    0.00    1.00
  C22                  CONDUIT     0.024     0  00:05      0.01    0.19    1.00
  C47                  CONDUIT     0.000     0  00:00      0.00    0.00    1.00
  Cout                 CONDUIT     7.984     0  00:05      3.85   63.04    0.93
  
  
  ***************************
  Flow Classification Summary
  ***************************
  
  -------------------------------------------------------------------------------------
                      Adjusted    ---------- Fraction of Time in Flow Class ---------- 
                       /Actual         Up    Down  Sub   Sup   Up    Down  Norm  Inlet 
  Conduit               Length    Dry  Dry   Dry   Crit  Crit  Crit  Crit  Ltd   Ctrl  
  -------------------------------------------------------------------------------------
  C23                     1.00   0.00  0.00  0.00  1.00  0.00  0.00  0.00  0.00  0.00
  C24                     1.00   0.00  0.00  0.00  1.00  0.00  0.00  0.00  0.00  0.00
  C25                     1.00   0.00  0.00  0.00  1.00  0.00  0.00  0.00  0.00  0.00
  C26                     1.00   0.00  0.00  0.00  1.00  0.00  0.00  0.00  0.00  0.00
  C27                     1.00   0.00  0.00  0.00  1.00  0.00  0.00  0.00  0.00  0.00
  C28                     1.00   0.00  0.00  0.00  1.00  0.00  0.00  0.00  0.00  0.00
  C29                     1.00   0.00  0.00  0.00  1.00  0.00  0.00  0.00  0.00  0.00
  C30                     1.00   0.00  0.00  0.00  1.00  0.00  0.00  0.00  0.00  0.00
  C31                     1.00   0.00  0.00  0.00  1.00  0.00  0.00  0.00  0.00  0.00
  C32                     1.00   0.00  0.00  0.00  1.00  0.00  0.00  0.00  0.00  0.00
  C33                     1.00   0.00  0.00  0.00  1.00  0.00  0.00  0.00  0.00  0.00
  C34                     1.00   0.00  0.00  0.00  1.00  0.00  0.00  0.00  0.00  0.00
  C35                     1.00   0.00  0.00  0.00  1.00  0.00  0.00  0.00  0.00  0.00
  C36                     1.00   0.00  0.00  0.00  1.00  0.00  0.00  0.00  0.00  0.00
  C37                     1.00   0.00  0.00  0.00  1.00  0.00  0.00  0.00  0.00  0.00
  C38                     1.00   0.00  0.00  0.00  1.00  0.00  0.00  0.00  0.00  0.00
  C39                     1.00   0.00  0.00  0.00  1.00  0.00  0.00  0.00  0.00  0.00
  C40                     1.00   0.00  0.00  0.00  1.00  0.00  0.00  0.00  0.00  0.00
  C41                     1.00   0.00  0.00  0.00  1.00  0.00  0.00  0.00  0.00  0.00
  C43                     1.00   0.00  0.00  0.00  1.00  0.00  0.00  0.00  0.00  0.00
  C44                     1.00   0.00  0.00  0.00  1.00  0.00  0.00  0.00  0.00  0.00
  C45                     1.00   0.00  0.00  0.00  1.00  0.00  0.00  0.00  0.00  0.00
  C46                     1.00   0.00  0.00  0.00  1.00  0.00  0.00  0.00  0.00  0.00
  C48                     1.00   0.00  0.00  0.00  1.00  0.00  0.00  0.00  0.00  0.00
  C42                     1.00   0.00  0.00  0.00  1.00  0.00  0.00  0.00  0.00  0.00
  C50                     1.00   0.00  0.00  0.00  1.00  0.00  0.00  0.00  0.00  0.00
  C49                     1.00   0.00  0.00  0.00  1.00  0.00  0.00  0.00  0.00  0.00
  C01                     1.00   0.00  0.00  0.00  1.00  0.00  0.00  0.00  0.00  0.00
  C02                     1.00   0.00  0.00  0.00  1.00  0.00  0.00  0.00  0.00  0.00
  C03                     1.00   0.00  0.00  0.00  1.00  0.00  0.00  0.00  0.00  0.00
  C04                     1.00   0.00  0.00  0.00  1.00  0.00  0.00  0.00  0.00  0.00
  C05                     1.00   0.00  0.00  0.00  1.00  0.00  0.00  0.00  0.00  0.00
  C06                     1.00   0.00  0.00  0.00  1.00  0.00  0.00  0.00  0.00  0.00
  C07                     1.00   0.00  0.00  0.00  1.00  0.00  0.00  0.00  0.00  0.00
  C08                     1.00   0.00  0.00  0.00  1.00  0.00  0.00  0.00  0.00  0.00
  C09                     1.00   0.00  0.00  0.00  1.00  0.00  0.00  0.00  0.00  0.00
  C10                     1.00   0.00  0.00  0.00  1.00  0.00  0.00  0.00  0.00  0.00
  C11                     1.00   0.00  0.00  0.00  1.00  0.00  0.00  0.00  0.00  0.00
  C12                     1.00   0.00  0.00  0.00  1.00  0.00  0.00  0.00  0.00  0.00
  C13                     1.00   0.00  0.00  0.00  1.00  0.00  0.00  0.00  0.00  0.00
  C14                     1.00   0.00  0.00  0.00  1.00  0.00  0.00  0.00  0.00  0.00
  C15                     1.00   0.00  0.00  0.00  1.00  0.00  0.00  0.00  0.00  0.00
  C16                     1.00   0.00  0.00  0.00  1.00  0.00  0.00  0.00  0.00  0.00
  C17                     1.00   0.00  0.00  0.00  1.00  0.00  0.00  0.00  0.00  0.00
  C18                     1.00   0.00  0.00  0.00  1.00  0.00  0.00  0.00  0.00  0.00
  C19                     1.00   0.00  0.00  0.00  1.00  0.00  0.00  0.00  0.00  0.00
  C20                     1.00   0.00  0.00  0.00  1.00  0.00  0.00  0.00  0.00  0.00
  C21                     1.00   0.00  0.00  0.00  1.00  0.00  0.00  0.00  0.00  0.00
  C22                     1.00   0.00  0.00  0.00  1.00  0.00  0.00  0.00  0.00  0.00
  C47                     1.00   0.00  0.00  0.00  1.00  0.00  0.00  0.00  0.00  0.00
  Cout                    1.00   0.00  0.00  0.00  1.00  0.00  0.00  0.00  0.00  0.00
  
  
  *************************
  Conduit Surcharge Summary
  *************************
  
  ----------------------------------------------------------------------------
                                                           Hours        Hours 
                         --------- Hours Full --------   Above Full   Capacity
  Conduit                Both Ends  Upstream  Dnstream   Normal Flow   Limited
  ----------------------------------------------------------------------------
  C23                         0.83      0.83      0.83      0.01         0.01
  C24                         0.83      0.83      0.83      0.82         0.01
  C25                         0.83      0.83      0.83      0.01         0.01
  C26                         0.83      0.83      0.83      0.01         0.01
  C27                         0.83      0.83      0.83      0.01         0.01
  C28                         0.83      0.83      0.83      0.76         0.01
  C29                         0.83      0.83      0.83      0.01         0.01
  C30                         0.83      0.83      0.83      0.01         0.01
  C31                         0.83      0.83      0.83      0.01         0.01
  C32                         0.83      0.83      0.83      0.78         0.01
  C33                         0.83      0.83      0.83      0.73         0.01
  C34                         0.83      0.83      0.83      0.01         0.01
  C35                         0.83      0.83      0.83      0.01         0.01
  C36                         0.83      0.83      0.83      0.01         0.01
  C37                         0.83      0.83      0.83      0.76         0.01
  C38                         0.83      0.83      0.83      0.79         0.01
  C39                         0.83      0.83      0.83      0.76         0.01
  C40                         0.83      0.83      0.83      0.01         0.01
  C41                         0.83      0.83      0.83      0.01         0.01
  C43                         0.83      0.83      0.83      0.01         0.01
  C44                         0.83      0.83      0.83      0.72         0.01
  C45                         0.83      0.83      0.83      0.83         0.01
  C46                         0.83      0.83      0.83      0.83         0.01
  C48                         0.83      0.83      0.83      0.01         0.01
  C42                         0.83      0.83      0.83      0.83         0.01
  C50                         0.83      0.83      0.83      0.75         0.01
  C49                         0.83      0.83      0.83      0.83         0.01
  C01                         0.83      0.83      0.83      0.01         0.01
  C02                         0.83      0.83      0.83      0.01         0.01
  C03                         0.83      0.83      0.83      0.74         0.01
  C04                         0.83      0.83      0.83      0.52         0.01
  C05                         0.83      0.83      0.83      0.51         0.01
  C06                         0.83      0.83      0.83      0.01         0.01
  C07                         0.83      0.83      0.83      0.01         0.01
  C08                         0.83      0.83      0.83      0.01         0.01
  C09                         0.83      0.83      0.83      0.82         0.01
  C10                         0.83      0.83      0.83      0.77         0.01
  C11                         0.83      0.83      0.83      0.01         0.01
  C12                         0.83      0.83      0.83      0.83         0.01
  C13                         0.83      0.83      0.83      0.83         0.01
  C14                         0.83      0.83      0.83      0.83         0.01
  C15                         0.83      0.83      0.83      0.78         0.01
  C16                         0.83      0.83      0.83      0.01         0.01
  C17                         0.83      0.83      0.83      0.83         0.01
  C18                         0.83      0.83      0.83      0.01         0.01
  C19                         0.83      0.83      0.83      0.01         0.01
  C20                         0.83      0.83      0.83      0.83         0.01
  C21                         0.83      0.83      0.83      0.01         0.01
  C22                         0.83      0.83      0.83      0.01         0.01
  C47                         0.83      0.83      0.83      0.01         0.01
  Cout                        0.01      0.83      0.01      0.83         0.01
  
  
  ***************
  Pumping Summary
  ***************
  
  ---------------------------------------------------------------------------------------------------------
                                                  Min       Avg       Max     Total     Power    % Time Off
                        Percent   Number of      Flow      Flow      Flow    Volume     Usage    Pump Curve
  Pump                 Utilized   Start-Ups       CMS       CMS       CMS  10^6 ltr     Kw-hr    Low   High
  ---------------------------------------------------------------------------------------------------------
  P1                       0.00           0      0.00      0.00      0.00     0.000      0.00    0.0    0.0
  

  Analysis begun on:  Mon Nov 18 17:35:05 2024
  Analysis ended on:  Mon Nov 18 17:35:05 2024
  Total elapsed time: < 1 sec