
  EPA STORM WATER MANAGEMENT MODEL - VERSION 5.2 (Build 5.2.4)
  PYSWMM TOOLKIT API - VERSION v1.0 (2023-11-27)
  ------------------------------------------------------------

  WARNING 04: minimum elevation drop used for Conduit C23
  WARNING 04: minimum elevation drop used for Conduit C24
  WARNING 04: minimum elevation drop used for Conduit C25
  WARNING 04: minimum elevation drop used for Conduit C26
  WARNING 04: minimum elevation drop used for Conduit C27
  WARNING 04: minimum elevation drop used for Conduit C28
  WARNING 04: minimum elevation drop used for Conduit C29
  WARNING 04: minimum elevation drop used for Conduit C30
  WARNING 04: minimum elevation drop used for Conduit C31
  WARNING 04: minimum elevation drop used for Conduit C32
  WARNING 04: minimum elevation drop used for Conduit C33
  WARNING 04: minimum elevation drop used for Conduit C34
  WARNING 04: minimum elevation drop used for Conduit C35
  WARNING 04: minimum elevation drop used for Conduit C36
  WARNING 04: minimum elevation drop used for Conduit C37
  WARNING 04: minimum elevation drop used for Conduit C38
  WARNING 04: minimum elevation drop used for Conduit C39
  WARNING 04: minimum elevation drop used for Conduit C40
  WARNING 04: minimum elevation drop used for Conduit C41
  WARNING 04: minimum elevation drop used for Conduit C43
  WARNING 04: minimum elevation drop used for Conduit C44
  WARNING 04: minimum elevation drop used for Conduit C45
  WARNING 04: minimum elevation drop used for Conduit C46
  WARNING 04: minimum elevation drop used for Conduit C48
  WARNING 04: minimum elevation drop used for Conduit C42
  WARNING 04: minimum elevation drop used for Conduit C50
  WARNING 04: minimum elevation drop used for Conduit C49
  WARNING 04: minimum elevation drop used for Conduit C01
  WARNING 04: minimum elevation drop used for Conduit C02
  WARNING 04: minimum elevation drop used for Conduit C03
  WARNING 04: minimum elevation drop used for Conduit C04
  WARNING 04: minimum elevation drop used for Conduit C05
  WARNING 04: minimum elevation drop used for Conduit C06
  WARNING 04: minimum elevation drop used for Conduit C07
  WARNING 04: minimum elevation drop used for Conduit C08
  WARNING 04: minimum elevation drop used for Conduit C09
  WARNING 04: minimum elevation drop used for Conduit C10
  WARNING 04: minimum elevation drop used for Conduit C11
  WARNING 04: minimum elevation drop used for Conduit C12
  WARNING 04: minimum elevation drop used for Conduit C13
  WARNING 04: minimum elevation drop used for Conduit C14
  WARNING 04: minimum elevation drop used for Conduit C15
  WARNING 04: minimum elevation drop used for Conduit C16
  WARNING 04: minimum elevation drop used for Conduit C17
  WARNING 04: minimum elevation drop used for Conduit C18
  WARNING 04: minimum elevation drop used for Conduit C19
  WARNING 04: minimum elevation drop used for Conduit C20
  WARNING 04: minimum elevation drop used for Conduit C21
  WARNING 04: minimum elevation drop used for Conduit C22
  WARNING 04: minimum elevation drop used for Conduit C47
  WARNING 04: minimum elevation drop used for Conduit Cout
  
  ****************
  Analysis Options
  ****************
  Flow Units ............... CMS
  Process Models:
    Rainfall/Runoff ........ YES
    RDII ................... NO
    Snowmelt ............... NO
    Groundwater ............ NO
    Flow Routing ........... YES
    Ponding Allowed ........ NO
    Water Quality .......... NO
  Infiltration Method ...... HORTON
  Flow Routing Method ...... DYNWAVE
  Surcharge Method ......... EXTRAN
  Starting Date ............ 11/19/2022 12:00:00
  Ending Date .............. 11/19/2022 12:50:00
  Antecedent Dry Days ...... 0.0
  Report Time Step ......... 00:10:00
  Wet Time Step ............ 00:05:00
  Dry Time Step ............ 01:00:00
  Routing Time Step ........ 300.00 sec
  Variable Time Step ....... YES
  Maximum Trials ........... 8
  Number of Threads ........ 1
  Head Tolerance ........... 0.001524 m
  
  
  *********************
  Rainfall File Summary
  *********************
  Station    First        Last         Recording   Periods    Periods    Periods
  ID         Date         Date         Frequency  w/Precip    Missing    Malfunc.
  -------------------------------------------------------------------------------
  203        11/19/2022   11/19/2022      10 min         6          0          0

  
  
  **************************        Volume         Depth
  Runoff Quantity Continuity     hectare-m            mm
  **************************     ---------       -------
  Total Precipitation ......       153.613      1536.192
  Evaporation Loss .........         0.000         0.000
  Infiltration Loss ........         0.000         0.000
  Surface Runoff ...........       145.211      1452.167
  Final Storage ............        10.423       104.238
  Continuity Error (%) .....        -1.316
  
  
  **************************        Volume        Volume
  Flow Routing Continuity        hectare-m      10^6 ltr
  **************************     ---------     ---------
  Dry Weather Inflow .......         0.000         0.000
  Wet Weather Inflow .......       137.600      1376.011
  Groundwater Inflow .......         0.000         0.000
  RDII Inflow ..............         0.000         0.000
  External Inflow ..........         0.000         0.000
  External Outflow .........         2.104        21.044
  Flooding Loss ............       132.915      1329.161
  Evaporation Loss .........         0.000         0.000
  Exfiltration Loss ........         0.000         0.000
  Initial Stored Volume ....         0.046         0.463
  Final Stored Volume ......         1.883        18.831
  Continuity Error (%) .....         0.540
  
  
  *************************
  Highest Continuity Errors
  *************************
  Node J3 (11.55%)
  Node J30 (10.87%)
  Node J17 (8.23%)
  Node J18 (7.05%)
  Node J24 (4.69%)
  
  
  ***************************
  Time-Step Critical Elements
  ***************************
  Link Cout (98.98%)
  
  
  ********************************
  Highest Flow Instability Indexes
  ********************************
  Link C24 (2)
  Link C25 (2)
  Link C31 (2)
  Link C33 (2)
  Link C34 (2)
  
  
  *********************************
  Most Frequent Nonconverging Nodes
  *********************************
  Node J18 (0.51%)
  Node J24 (0.51%)
  Node OF (0.51%)
  
  
  *************************
  Routing Time Step Summary
  *************************
  Minimum Time Step           :     4.92 sec
  Average Time Step           :    15.30 sec
  Maximum Time Step           :   300.00 sec
  % of Time in Steady State   :     0.00
  Average Iterations per Step :     2.03
  % of Steps Not Converging   :     0.51
  Time Step Frequencies       :
     300.000 - 83.462 sec      :     0.51 %
     83.462 - 23.220 sec      :     0.00 %
     23.220 -  6.460 sec      :    98.46 %
      6.460 -  1.797 sec      :     1.03 %
      1.797 -  0.500 sec      :     0.00 %
  
  
  ***************************
  Subcatchment Runoff Summary
  ***************************
  
  ------------------------------------------------------------------------------------------------------------------------------
                            Total      Total      Total      Total     Imperv       Perv      Total       Total     Peak  Runoff
                           Precip      Runon       Evap      Infil     Runoff     Runoff     Runoff      Runoff   Runoff   Coeff
  Subcatchment                 mm         mm         mm         mm         mm         mm         mm    10^6 ltr      CMS
  ------------------------------------------------------------------------------------------------------------------------------
  S1                      1536.19       0.00       0.00       0.00      15.21    1520.98    1536.19      387.52   192.24   1.000
  S2                      1536.19       0.00       0.00       0.00      13.98    1521.23    1535.21       11.93     5.92   0.999
  S3                      1536.19       0.00       0.00       0.00      13.98    1522.21    1536.19        3.18     1.58   1.000
  S4                      1536.19       0.00       0.00       0.00      13.98    1522.21    1536.19        3.15     1.56   1.000
  S5                      1536.19       0.00       0.00       0.00      13.98    1522.21    1536.19        4.59     2.28   1.000
  S6                      1536.19       0.00       0.00       0.00      13.98    1522.21    1536.19       12.66     6.28   1.000
  S7                      1536.19       0.00       0.00       0.00      13.98    1522.21    1536.19        2.38     1.18   1.000
  S8                      1536.19       0.00       0.00       0.00      13.98    1522.21    1536.19        7.48     3.71   1.000
  S9                      1536.19       0.00       0.00       0.00      13.98    1522.21    1536.19        9.25     4.59   1.000
  S10                     1536.19       0.00       0.00       0.00       0.00    1522.21    1522.21        2.15     1.06   0.991
  S11                     1536.19       0.00       0.00       0.00      13.98    1474.24    1488.22       21.77    11.10   0.969
  S12                     1536.19       0.00       0.00       0.00      13.98    1522.21    1536.19       13.33     6.61   1.000
  S13                     1536.19       0.00       0.00       0.00       0.00    1522.21    1522.21       12.85     6.37   0.991
  S14                     1536.19       0.00       0.00       0.00      12.90    1523.29    1536.19       12.34     6.12   1.000
  S15                     1536.19       0.00       0.00       0.00      12.90    1523.29    1536.19       11.52     5.72   1.000
  S16                     1536.19       0.00       0.00       0.00      11.83    1515.31    1527.14       26.97    13.46   0.994
  S17                     1536.19       0.00       0.00       0.00      11.83    1400.65    1412.48       48.10    24.84   0.919
  S18                     1536.19       0.00       0.00       0.00      11.83    1524.33    1536.16        1.98     0.98   1.000
  S19                     1536.19       0.00       0.00       0.00      11.83       0.00      11.83        0.03     0.01   0.008
  S20                     1536.19       0.00       0.00       0.00      11.83    1524.35    1536.18        1.57     0.78   1.000
  S21                     1536.19       0.00       0.00       0.00      11.83    1498.66    1510.49       25.04    12.62   0.983
  S22                     1536.19       0.00       0.00       0.00      11.83    1524.31    1536.14        0.51     0.25   1.000
  S23                     1536.19       0.00       0.00       0.00      11.83    1524.36    1536.19        0.60     0.30   1.000
  S24                     1536.19       0.00       0.00       0.00      11.83    1524.36    1536.19        0.75     0.37   1.000
  S25                     1536.19       0.00       0.00       0.00      11.83    1524.36    1536.19        0.91     0.45   1.000
  S26                     1536.19       0.00       0.00       0.00      11.83    1524.36    1536.19        1.06     0.53   1.000
  S27                     1536.19       0.00       0.00       0.00      11.83    1524.30    1536.13       12.77     6.33   1.000
  S28                     1536.19       0.00       0.00       0.00      11.83    1501.72    1513.55       13.44     6.76   0.985
  S29                     1536.19       0.00       0.00       0.00      11.83    1524.33    1536.15        1.41     0.70   1.000
  S30                     1536.19       0.00       0.00       0.00      11.83    1364.30    1376.13       87.66    44.94   0.896
  S31                     1536.19       0.00       0.00       0.00      12.29    1523.90    1536.19       20.82    10.33   1.000
  S32                     1536.19       0.00       0.00       0.00      12.29    1523.90    1536.19        6.41     3.18   1.000
  S33                     1536.19       0.00       0.00       0.00      14.44    1521.75    1536.19        4.78     2.37   1.000
  S34                     1536.19       0.00       0.00       0.00      14.44    1521.75    1536.19        5.05     2.51   1.000
  S35                     1536.19       0.00       0.00       0.00      13.98    1522.21    1536.19        6.18     3.06   1.000
  S36                     1536.19       0.00       0.00       0.00      13.98    1522.21    1536.19        2.53     1.26   1.000
  S37                     1536.19       0.00       0.00       0.00      13.98    1522.21    1536.19        5.53     2.74   1.000
  S38                     1536.19       0.00       0.00       0.00      13.98    1522.21    1536.19        0.25     0.12   1.000
  S39                     1536.19       0.00       0.00       0.00      13.98    1522.21    1536.19        6.30     3.12   1.000
  S40                     1536.19       0.00       0.00       0.00      13.98    1522.21    1536.19        2.17     1.07   1.000
  S41                     1536.19       0.00       0.00       0.00      13.98    1522.21    1536.19        3.49     1.73   1.000
  S42                     1536.19       0.00       0.00       0.00      13.98    1522.21    1536.19        4.85     2.41   1.000
  S43                     1536.19       0.00       0.00       0.00      13.98    1522.21    1536.19       11.06     5.49   1.000
  S44                     1536.19       0.00       0.00       0.00      13.98    1522.21    1536.19        8.02     3.98   1.000
  S45                     1536.19       0.00       0.00       0.00      13.98    1522.21    1536.19        0.81     0.40   1.000
  S46                     1536.19       0.00       0.00       0.00      13.98    1522.21    1536.19        7.44     3.69   1.000
  S47                     1536.19       0.00       0.00       0.00      13.98    1522.21    1536.19       15.02     7.45   1.000
  S48                     1536.19       0.00       0.00       0.00      13.98    1522.21    1536.19       17.36     8.61   1.000
  S49                     1536.19       0.00       0.00       0.00      13.98    1522.21    1536.19       10.55     5.24   1.000
  S50                     1536.19       0.00       0.00       0.00      13.98    1522.21    1536.19        8.69     4.31   1.000
  S51                     1536.19       0.00       0.00       0.00      13.98    1522.21    1536.19        5.13     2.55   1.000
  S52                     1536.19       0.00       0.00       0.00      13.98    1522.21    1536.19       13.60     6.74   1.000
  S53                     1536.19       0.00       0.00       0.00      13.98    1500.82    1514.80       18.45     9.28   0.986
  S54                     1536.19       0.00       0.00       0.00      13.98    1520.14    1534.12        7.01     3.48   0.999
  S55                     1536.19       0.00       0.00       0.00      13.98    1522.21    1536.19        0.58     0.29   1.000
  S56                     1536.19       0.00       0.00       0.00      13.98    1522.19    1536.17        0.58     0.29   1.000
  S57                     1536.19       0.00       0.00       0.00      13.98    1522.21    1536.19        7.94     3.94   1.000
  S58                     1536.19       0.00       0.00       0.00      13.98    1522.21    1536.19       10.20     5.06   1.000
  S59                     1536.19       0.00       0.00       0.00      13.98    1522.21    1536.19        9.91     4.92   1.000
  S60                     1536.19       0.00       0.00       0.00      11.83    1523.77    1535.59        6.03     2.99   1.000
  S61                     1536.19       0.00       0.00       0.00      11.83       0.00      11.83        0.04     0.02   0.008
  S62                     1536.19       0.00       0.00       0.00      11.83    1338.22    1350.05       72.35    36.72   0.879
  S63                     1536.19       0.00       0.00       0.00      11.83    1524.36    1536.19       14.44     7.16   1.000
  S64                     1536.19       0.00       0.00       0.00      11.83    1524.36    1536.19       39.10    19.40   1.000
  S65                     1536.19       0.00       0.00       0.00      11.83    1524.36    1536.19        6.24     3.09   1.000
  S66                     1536.19       0.00       0.00       0.00      11.83    1524.36    1536.19       10.06     4.99   1.000
  S67                     1536.19       0.00       0.00       0.00      11.83    1524.36    1536.19       18.80     9.33   1.000
  S68                     1536.19       0.00       0.00       0.00      11.83    1524.36    1536.19       22.04    10.94   1.000
  S69                     1536.19       0.00       0.00       0.00      11.83       0.00      11.83        0.29     0.15   0.008
  S70                     1536.19       0.00       0.00       0.00      11.83    1497.24    1509.07       39.49    19.92   0.982
  S71                     1536.19       0.00       0.00       0.00      13.98    1522.21    1536.19       22.60    11.21   1.000
  S72                     1536.19       0.00       0.00       0.00      11.83    1517.51    1529.34        7.59     3.78   0.996
  S73                     1536.19       0.00       0.00       0.00      11.83    1524.36    1536.19       32.20    15.97   1.000
  S74                     1536.19       0.00       0.00       0.00      11.83       0.00      11.83        0.08     0.04   0.008
  S75                     1536.19       0.00       0.00       0.00      11.83    1524.36    1536.19        1.03     0.51   1.000
  S76                     1536.19       0.00       0.00       0.00      11.83    1524.36    1536.19       20.29    10.07   1.000
  S77                     1536.19       0.00       0.00       0.00      11.83    1524.36    1536.19       16.42     8.15   1.000
  S78                     1536.19       0.00       0.00       0.00      11.83    1524.36    1536.19       11.91     5.91   1.000
  S79                     1536.19       0.00       0.00       0.00      13.98    1522.21    1536.19       10.43     5.17   1.000
  S80                     1536.19       0.00       0.00       0.00      11.83    1524.32    1536.15        4.24     2.10   1.000
  S81                     1536.19       0.00       0.00       0.00      11.83    1524.36    1536.19       17.37     8.62   1.000
  S82                     1536.19       0.00       0.00       0.00      11.83    1524.36    1536.19       16.96     8.41   1.000
  S83                     1536.19       0.00       0.00       0.00      11.83    1524.36    1536.19       10.91     5.41   1.000
  S84                     1536.19       0.00       0.00       0.00      13.98    1522.21    1536.19        7.13     3.54   1.000
  S85                     1536.19       0.00       0.00       0.00      13.98    1507.12    1521.10       18.80     9.42   0.990
  S86                     1536.19       0.00       0.00       0.00       0.00    1522.21    1522.21       17.61     8.74   0.991
  S87                     1536.19       0.00       0.00       0.00      13.98    1522.21    1536.19       19.08     9.47   1.000
  S88                     1536.19       0.00       0.00       0.00      13.98    1522.21    1536.19        3.44     1.71   1.000
  S89                     1536.19       0.00       0.00       0.00      13.98    1522.21    1536.19       15.53     7.70   1.000
  S90                     1536.19       0.00       0.00       0.00       0.00    1522.21    1522.21        7.47     3.71   0.991
  S91                     1536.19       0.00       0.00       0.00      13.98    1522.21    1536.19        2.53     1.26   1.000
  
  
  ******************
  Node Depth Summary
  ******************
  
  ---------------------------------------------------------------------------------
                                 Average  Maximum  Maximum  Time of Max    Reported
                                   Depth    Depth      HGL   Occurrence   Max Depth
  Node                 Type       Meters   Meters   Meters  days hr:min      Meters
  ---------------------------------------------------------------------------------
  J7                   JUNCTION     2.49     2.50     2.50     0  00:05        2.50
  J13                  JUNCTION     2.49     2.50     2.50     0  00:05        2.50
  J19                  JUNCTION     2.49     2.50     2.50     0  00:05        2.50
  J25                  JUNCTION     2.49     2.50     2.50     0  00:05        2.50
  J1                   JUNCTION     2.49     2.50     2.50     0  00:05        2.50
  J2                   JUNCTION     2.49     2.50     2.50     0  00:05        2.50
  J3                   JUNCTION     2.49     2.50     2.50     0  00:05        2.50
  J4                   JUNCTION     2.49     2.50     2.50     0  00:05        2.50
  J5                   JUNCTION     2.49     2.50     2.50     0  00:05        2.50
  J6                   JUNCTION     2.49     2.50     2.50     0  00:05        2.50
  J8                   JUNCTION     2.49     2.50     2.50     0  00:05        2.50
  J9                   JUNCTION     2.49     2.50     2.50     0  00:05        2.50
  J10                  JUNCTION     2.49     2.50     2.50     0  00:05        2.50
  J11                  JUNCTION     2.49     2.50     2.50     0  00:05        2.50
  J12                  JUNCTION     2.49     2.50     2.50     0  00:05        2.50
  J14                  JUNCTION     2.49     2.50     2.50     0  00:05        2.50
  J15                  JUNCTION     2.49     2.50     2.50     0  00:05        2.50
  J16                  JUNCTION     2.49     2.50     2.50     0  00:05        2.50
  J17                  JUNCTION     2.49     2.50     2.50     0  00:05        2.50
  J18                  JUNCTION     2.49     2.50     2.50     0  00:05        2.50
  J20                  JUNCTION     2.49     2.50     2.50     0  00:05        2.50
  J21                  JUNCTION     2.49     2.50     2.50     0  00:05        2.50
  J22                  JUNCTION     2.49     2.50     2.50     0  00:05        2.50
  J23                  JUNCTION     2.49     2.50     2.50     0  00:05        2.50
  J24                  JUNCTION     2.49     2.50     2.50     0  00:05        2.50
  J26                  JUNCTION     2.49     2.50     2.50     0  00:05        2.50
  J27                  JUNCTION     2.49     2.50     2.50     0  00:05        2.50
  J29                  JUNCTION     2.49     2.50     2.50     0  00:05        2.50
  J30                  JUNCTION     2.49     2.50     2.50     0  00:05        2.50
  J31                  JUNCTION     2.49     2.50     2.50     0  00:05        2.50
  J33                  JUNCTION     2.49     2.50     2.50     0  00:05        2.50
  J32                  JUNCTION     2.49     2.50     2.50     0  00:05        2.50
  J28                  JUNCTION     2.49     2.50     2.50     0  00:05        2.50
  OF                   OUTFALL      1.36     1.41     1.41     0  00:05        1.37
  
  
  *******************
  Node Inflow Summary
  *******************
  
  -------------------------------------------------------------------------------------------------
                                  Maximum  Maximum                  Lateral       Total        Flow
                                  Lateral    Total  Time of Max      Inflow      Inflow     Balance
                                   Inflow   Inflow   Occurrence      Volume      Volume       Error
  Node                 Type           CMS      CMS  days hr:min    10^6 ltr    10^6 ltr     Percent
  -------------------------------------------------------------------------------------------------
  J7                   JUNCTION    49.344   49.607     0  00:20        91.6        92.4       1.082
  J13                  JUNCTION     4.348    4.800     0  00:15        8.28        9.54       2.562
  J19                  JUNCTION   206.039  206.039     0  00:20         394         394       1.979
  J25                  JUNCTION    24.837   25.612     0  00:20        45.3        47.6       1.337
  J1                   JUNCTION    17.295   17.295     0  00:15        33.1        33.1       2.038
  J2                   JUNCTION    12.994   13.279     0  00:15        24.9        25.5       1.817
  J3                   JUNCTION     0.579    9.299     0  00:05        1.11         5.8      13.057
  J4                   JUNCTION    37.624   38.467     0  00:15          72        74.1       1.660
  J5                   JUNCTION    31.108   31.353     0  00:15        59.5        60.1       1.492
  J6                   JUNCTION    13.611   13.611     0  00:20          26          26       1.349
  J8                   JUNCTION    20.942   20.942     0  00:15        40.1        40.1       2.126
  J9                   JUNCTION     9.416    9.723     0  00:20        17.8        18.7       1.512
  J10                  JUNCTION    14.053   14.053     0  00:20        26.9        26.9       1.303
  J11                  JUNCTION    15.097   15.678     0  00:15        28.9        30.3       1.948
  J12                  JUNCTION    15.973   16.536     0  00:15        30.6        31.9       2.120
  J14                  JUNCTION    13.535   13.535     0  00:20        25.9        25.9       2.154
  J15                  JUNCTION    19.366   19.366     0  00:20        36.8        36.8       1.726
  J16                  JUNCTION    11.210   12.443     0  00:15        21.4        24.5       1.968
  J17                  JUNCTION     0.146    4.285     0  00:05       0.279        3.02       8.964
  J18                  JUNCTION     0.511    1.899     0  00:05       0.977        2.74       7.587
  J20                  JUNCTION    37.812   37.812     0  00:20        71.7        71.7       1.980
  J21                  JUNCTION    12.493   12.493     0  00:15        23.9        23.9       2.154
  J22                  JUNCTION    25.634   25.634     0  00:20        48.4        48.4       1.510
  J23                  JUNCTION    13.457   13.775     0  00:20        25.6        26.6       2.037
  J24                  JUNCTION     1.774    2.177     0  00:15        3.39        4.38       4.924
  J26                  JUNCTION    11.035   11.035     0  00:15        21.1        21.1       2.154
  J27                  JUNCTION     9.678   10.333     0  00:15        18.5        20.1       2.266
  J29                  JUNCTION    15.874   16.540     0  00:15        30.4        31.9       2.196
  J30                  JUNCTION     0.000    5.457     0  00:05           0        3.61      12.202
  J31                  JUNCTION    44.936   45.268     0  00:20        82.4        83.5       0.848
  J33                  JUNCTION    15.619   15.619     0  00:20        29.9        29.9       2.145
  J32                  JUNCTION     7.125    7.125     0  00:20        13.6        13.6       1.769
  J28                  JUNCTION    11.393   12.056     0  00:15        21.8        23.4       1.771
  OF                   OUTFALL      0.000    7.967     0  00:05           0          21       0.000
  
  
  **********************
  Node Surcharge Summary
  **********************
  
  Surcharging occurs when water rises above the top of the highest conduit.
  ---------------------------------------------------------------------
                                               Max. Height   Min. Depth
                                   Hours       Above Crown    Below Rim
  Node                 Type      Surcharged         Meters       Meters
  ---------------------------------------------------------------------
  J7                   JUNCTION        0.83          0.850        0.000
  J13                  JUNCTION        0.83          0.850        0.000
  J19                  JUNCTION        0.83          0.850        0.000
  J25                  JUNCTION        0.83          0.850        0.000
  J1                   JUNCTION        0.83          0.850        0.000
  J2                   JUNCTION        0.83          0.850        0.000
  J3                   JUNCTION        0.83          0.850        0.000
  J4                   JUNCTION        0.83          0.850        0.000
  J5                   JUNCTION        0.83          0.850        0.000
  J6                   JUNCTION        0.83          0.850        0.000
  J8                   JUNCTION        0.83          0.850        0.000
  J9                   JUNCTION        0.83          0.850        0.000
  J10                  JUNCTION        0.83          0.850        0.000
  J11                  JUNCTION        0.83          0.850        0.000
  J12                  JUNCTION        0.83          0.850        0.000
  J14                  JUNCTION        0.83          0.850        0.000
  J15                  JUNCTION        0.83          0.850        0.000
  J16                  JUNCTION        0.83          0.850        0.000
  J17                  JUNCTION        0.83          0.850        0.000
  J18                  JUNCTION        0.83          0.850        0.000
  J20                  JUNCTION        0.83          0.850        0.000
  J21                  JUNCTION        0.83          0.850        0.000
  J22                  JUNCTION        0.83          0.850        0.000
  J23                  JUNCTION        0.83          0.850        0.000
  J24                  JUNCTION        0.83          0.850        0.000
  J26                  JUNCTION        0.83          0.850        0.000
  J27                  JUNCTION        0.83          0.850        0.000
  J29                  JUNCTION        0.83          0.850        0.000
  J30                  JUNCTION        0.83          0.850        0.000
  J31                  JUNCTION        0.83          0.850        0.000
  J33                  JUNCTION        0.83          0.850        0.000
  J32                  JUNCTION        0.83          0.850        0.000
  J28                  JUNCTION        0.83          0.850        0.000
  
  
  *********************
  Node Flooding Summary
  *********************
  
  Flooding refers to all water that overflows a node, whether it ponds or not.
  --------------------------------------------------------------------------
                                                             Total   Maximum
                                 Maximum   Time of Max       Flood    Ponded
                        Hours       Rate    Occurrence      Volume     Depth
  Node                 Flooded       CMS   days hr:min    10^6 ltr    Meters
  --------------------------------------------------------------------------
  J7                      0.83    49.200      0  00:20      91.404     0.000
  J13                     0.83     4.469      0  00:15       8.761     0.000
  J19                     0.83   198.686      0  00:20     372.953     0.000
  J25                     0.83    25.571      0  00:20      47.578     0.000
  J1                      0.83    17.060      0  00:20      32.421     0.000
  J2                      0.83    12.713      0  00:20      23.960     0.000
  J3                      0.83     8.740      0  00:05       5.796     0.000
  J4                      0.83    37.587      0  00:20      70.893     0.000
  J5                      0.83    30.070      0  00:20      55.750     0.000
  J6                      0.83    12.780      0  00:20      23.391     0.000
  J8                      0.83    20.833      0  00:20      39.772     0.000
  J9                      0.83     9.400      0  00:20      17.594     0.000
  J10                     0.83    13.058      0  00:20      23.785     0.000
  J11                     0.83    15.065      0  00:20      28.683     0.000
  J12                     0.83    16.169      0  00:15      31.015     0.000
  J14                     0.83    13.535      0  00:20      25.895     0.000
  J15                     0.83    18.939      0  00:20      35.451     0.000
  J16                     0.83    11.896      0  00:15      22.807     0.000
  J17                     0.83     3.301      0  00:05       2.136     0.000
  J18                     0.75     1.280      0  00:05       1.802     0.000
  J20                     0.83    37.805      0  00:20      71.715     0.000
  J21                     0.83    12.493      0  00:15      23.902     0.000
  J22                     0.83    24.998      0  00:20      46.316     0.000
  J23                     0.83    13.502      0  00:20      25.809     0.000
  J24                     0.75     1.870      0  00:15       3.461     0.000
  J26                     0.83    11.035      0  00:15      21.112     0.000
  J27                     0.83     9.996      0  00:15      19.311     0.000
  J29                     0.83    16.079      0  00:15      30.864     0.000
  J30                     0.83     5.257      0  00:05       3.606     0.000
  J31                     0.83    44.793      0  00:20      81.978     0.000
  J33                     0.83    15.619      0  00:20      29.875     0.000
  J32                     0.83     6.856      0  00:20      12.833     0.000
  J28                     0.83    11.547      0  00:18      21.944     0.000
  
  
  ***********************
  Outfall Loading Summary
  ***********************
  
  -----------------------------------------------------------
                         Flow       Avg       Max       Total
                         Freq      Flow      Flow      Volume
  Outfall Node           Pcnt       CMS       CMS    10^6 ltr
  -----------------------------------------------------------
  OF                   100.00     7.321     7.967      21.044
  -----------------------------------------------------------
  System               100.00     7.321     7.967      21.044
  
  
  ********************
  Link Flow Summary
  ********************
  
  -----------------------------------------------------------------------------
                                 Maximum  Time of Max   Maximum    Max/    Max/
                                  |Flow|   Occurrence   |Veloc|    Full    Full
  Link                 Type          CMS  days hr:min     m/sec    Flow   Depth
  -----------------------------------------------------------------------------
  P1                   PUMP        0.000     0  00:00                          
  C23                  CONDUIT     0.131     0  00:05      0.06    1.14    1.00
  C24                  CONDUIT     1.047     0  00:05      0.49    9.07    1.00
  C25                  CONDUIT     0.126     0  00:05      0.06    1.00    1.00
  C26                  CONDUIT     0.644     0  00:05      0.30    5.04    1.00
  C27                  CONDUIT     0.145     0  00:05      0.07    1.19    1.00
  C28                  CONDUIT     1.199     0  00:05      0.56    8.26    1.00
  C29                  CONDUIT     0.507     0  00:05      0.24    3.57    1.00
  C30                  CONDUIT     1.238     0  00:05      0.58   10.87    1.00
  C31                  CONDUIT     0.422     0  00:05      0.20    3.69    1.00
  C32                  CONDUIT     2.316     0  00:05      1.08   14.97    1.00
  C33                  CONDUIT     6.009     0  00:05      2.81   35.16    1.00
  C34                  CONDUIT     1.115     0  00:05      0.52    8.87    1.00
  C35                  CONDUIT     0.392     0  00:05      0.18    4.17    1.00
  C36                  CONDUIT     0.722     0  00:05      0.34    6.81    1.00
  C37                  CONDUIT     0.376     0  00:05      0.18    2.58    1.00
  C38                  CONDUIT     1.080     0  00:05      0.51    7.53    1.00
  C39                  CONDUIT     0.685     0  00:05      0.32    4.34    1.00
  C40                  CONDUIT     0.000     0  00:00      0.00    0.00    1.00
  C41                  CONDUIT     0.000     0  00:00      0.00    0.00    1.00
  C43                  CONDUIT     0.000     0  00:00      0.00    0.00    1.00
  C44                  CONDUIT     0.659     0  00:05      0.31    5.62    1.00
  C45                  CONDUIT     2.652     0  00:05      1.24   22.75    1.00
  C46                  CONDUIT     2.500     0  00:05      1.17   20.72    1.00
  C48                  CONDUIT     0.000     0  00:05      0.00    0.00    1.00
  C42                  CONDUIT     0.306     0  00:05      0.14    2.42    1.00
  C50                  CONDUIT     0.696     0  00:05      0.33    6.73    1.00
  C49                  CONDUIT     0.408     0  00:05      0.19    3.56    1.00
  C01                  CONDUIT     0.000     0  00:00      0.00    0.00    1.00
  C02                  CONDUIT     0.000     0  00:00      0.00    0.00    1.00
  C03                  CONDUIT     1.153     0  00:05      0.54    9.21    1.00
  C04                  CONDUIT     0.719     0  00:05      0.34    5.66    1.00
  C05                  CONDUIT     0.595     0  00:05      0.28    4.74    1.00
  C06                  CONDUIT     0.000     0  00:00      0.00    0.00    1.00
  C07                  CONDUIT     0.000     0  00:00      0.00    0.00    1.00
  C08                  CONDUIT     0.000     0  00:00      0.00    0.00    1.00
  C09                  CONDUIT     1.051     0  00:05      0.49    9.20    1.00
  C10                  CONDUIT     1.208     0  00:05      0.57    9.64    1.00
  C11                  CONDUIT     0.000     0  00:00      0.00    0.00    1.00
  C12                  CONDUIT     0.000     0  00:05      0.00    0.00    1.00
  C13                  CONDUIT     0.631     0  00:05      0.29    5.49    1.00
  C14                  CONDUIT     3.043     0  00:05      1.42   24.17    1.00
  C15                  CONDUIT     0.827     0  00:05      0.39    6.57    1.00
  C16                  CONDUIT     1.025     0  00:05      0.48    9.00    1.00
  C17                  CONDUIT     1.170     0  00:05      0.55   10.32    1.00
  C18                  CONDUIT     0.000     0  00:00      0.00    0.00    1.00
  C19                  CONDUIT     0.664     0  00:05      0.31    5.27    1.00
  C20                  CONDUIT     0.817     0  00:05      0.38    7.28    1.00
  C21                  CONDUIT     1.675     0  00:05      0.78   15.82    1.00
  C22                  CONDUIT     0.331     0  00:05      0.15    2.62    1.00
  C47                  CONDUIT     1.372     0  00:05      0.64   14.11    1.00
  Cout                 CONDUIT     7.967     0  00:05      3.85   62.91    0.93
  
  
  ***************************
  Flow Classification Summary
  ***************************
  
  -------------------------------------------------------------------------------------
                      Adjusted    ---------- Fraction of Time in Flow Class ---------- 
                       /Actual         Up    Down  Sub   Sup   Up    Down  Norm  Inlet 
  Conduit               Length    Dry  Dry   Dry   Crit  Crit  Crit  Crit  Ltd   Ctrl  
  -------------------------------------------------------------------------------------
  C23                     1.00   0.00  0.00  0.00  1.00  0.00  0.00  0.00  0.00  0.00
  C24                     1.00   0.00  0.00  0.00  1.00  0.00  0.00  0.00  0.00  0.00
  C25                     1.00   0.00  0.00  0.00  1.00  0.00  0.00  0.00  0.00  0.00
  C26                     1.00   0.00  0.00  0.00  1.00  0.00  0.00  0.00  0.00  0.00
  C27                     1.00   0.00  0.00  0.00  1.00  0.00  0.00  0.00  0.00  0.00
  C28                     1.00   0.00  0.00  0.00  1.00  0.00  0.00  0.00  0.00  0.00
  C29                     1.00   0.00  0.00  0.00  1.00  0.00  0.00  0.00  0.00  0.00
  C30                     1.00   0.00  0.00  0.00  1.00  0.00  0.00  0.00  0.00  0.00
  C31                     1.00   0.00  0.00  0.00  1.00  0.00  0.00  0.00  0.00  0.00
  C32                     1.00   0.00  0.00  0.00  1.00  0.00  0.00  0.00  0.00  0.00
  C33                     1.00   0.00  0.00  0.00  1.00  0.00  0.00  0.00  0.00  0.00
  C34                     1.00   0.00  0.00  0.00  1.00  0.00  0.00  0.00  0.00  0.00
  C35                     1.00   0.00  0.00  0.00  1.00  0.00  0.00  0.00  0.00  0.00
  C36                     1.00   0.00  0.00  0.00  1.00  0.00  0.00  0.00  0.00  0.00
  C37                     1.00   0.00  0.00  0.00  1.00  0.00  0.00  0.00  0.00  0.00
  C38                     1.00   0.00  0.00  0.00  1.00  0.00  0.00  0.00  0.00  0.00
  C39                     1.00   0.00  0.00  0.00  1.00  0.00  0.00  0.00  0.00  0.00
  C40                     1.00   0.00  0.00  0.00  1.00  0.00  0.00  0.00  0.00  0.00
  C41                     1.00   0.00  0.00  0.00  1.00  0.00  0.00  0.00  0.00  0.00
  C43                     1.00   0.00  0.00  0.00  1.00  0.00  0.00  0.00  0.00  0.00
  C44                     1.00   0.00  0.00  0.00  1.00  0.00  0.00  0.00  0.00  0.00
  C45                     1.00   0.00  0.00  0.00  1.00  0.00  0.00  0.00  0.00  0.00
  C46                     1.00   0.00  0.00  0.00  1.00  0.00  0.00  0.00  0.00  0.00
  C48                     1.00   0.00  0.00  0.00  1.00  0.00  0.00  0.00  0.00  0.00
  C42                     1.00   0.00  0.00  0.00  1.00  0.00  0.00  0.00  0.00  0.00
  C50                     1.00   0.00  0.00  0.00  1.00  0.00  0.00  0.00  0.00  0.00
  C49                     1.00   0.00  0.00  0.00  1.00  0.00  0.00  0.00  0.00  0.00
  C01                     1.00   0.00  0.00  0.00  1.00  0.00  0.00  0.00  0.00  0.00
  C02                     1.00   0.00  0.00  0.00  1.00  0.00  0.00  0.00  0.00  0.00
  C03                     1.00   0.00  0.00  0.00  1.00  0.00  0.00  0.00  0.00  0.00
  C04                     1.00   0.00  0.00  0.00  1.00  0.00  0.00  0.00  0.00  0.00
  C05                     1.00   0.00  0.00  0.00  1.00  0.00  0.00  0.00  0.00  0.00
  C06                     1.00   0.00  0.00  0.00  1.00  0.00  0.00  0.00  0.00  0.00
  C07                     1.00   0.00  0.00  0.00  1.00  0.00  0.00  0.00  0.00  0.00
  C08                     1.00   0.00  0.00  0.00  1.00  0.00  0.00  0.00  0.00  0.00
  C09                     1.00   0.00  0.00  0.00  1.00  0.00  0.00  0.00  0.00  0.00
  C10                     1.00   0.00  0.00  0.00  1.00  0.00  0.00  0.00  0.00  0.00
  C11                     1.00   0.00  0.00  0.00  1.00  0.00  0.00  0.00  0.00  0.00
  C12                     1.00   0.00  0.00  0.00  1.00  0.00  0.00  0.00  0.00  0.00
  C13                     1.00   0.00  0.00  0.00  1.00  0.00  0.00  0.00  0.00  0.00
  C14                     1.00   0.00  0.00  0.00  1.00  0.00  0.00  0.00  0.00  0.00
  C15                     1.00   0.00  0.00  0.00  1.00  0.00  0.00  0.00  0.00  0.00
  C16                     1.00   0.00  0.00  0.00  1.00  0.00  0.00  0.00  0.00  0.00
  C17                     1.00   0.00  0.00  0.00  1.00  0.00  0.00  0.00  0.00  0.00
  C18                     1.00   0.00  0.00  0.00  1.00  0.00  0.00  0.00  0.00  0.00
  C19                     1.00   0.00  0.00  0.00  1.00  0.00  0.00  0.00  0.00  0.00
  C20                     1.00   0.00  0.00  0.00  1.00  0.00  0.00  0.00  0.00  0.00
  C21                     1.00   0.00  0.00  0.00  1.00  0.00  0.00  0.00  0.00  0.00
  C22                     1.00   0.00  0.00  0.00  1.00  0.00  0.00  0.00  0.00  0.00
  C47                     1.00   0.00  0.00  0.00  1.00  0.00  0.00  0.00  0.00  0.00
  Cout                    1.00   0.00  0.00  0.00  1.00  0.00  0.00  0.00  0.00  0.00
  
  
  *************************
  Conduit Surcharge Summary
  *************************
  
  ----------------------------------------------------------------------------
                                                           Hours        Hours 
                         --------- Hours Full --------   Above Full   Capacity
  Conduit                Both Ends  Upstream  Dnstream   Normal Flow   Limited
  ----------------------------------------------------------------------------
  C23                         0.83      0.83      0.83      0.20         0.01
  C24                         0.83      0.83      0.83      0.83         0.01
  C25                         0.83      0.83      0.83      0.09         0.01
  C26                         0.83      0.83      0.83      0.77         0.01
  C27                         0.83      0.83      0.83      0.23         0.01
  C28                         0.83      0.83      0.83      0.75         0.01
  C29                         0.83      0.83      0.83      0.64         0.01
  C30                         0.83      0.83      0.83      0.83         0.01
  C31                         0.83      0.83      0.83      0.78         0.01
  C32                         0.83      0.83      0.83      0.75         0.01
  C33                         0.83      0.83      0.83      0.71         0.01
  C34                         0.83      0.83      0.83      0.83         0.01
  C35                         0.83      0.83      0.83      0.83         0.01
  C36                         0.83      0.83      0.83      0.83         0.01
  C37                         0.83      0.83      0.83      0.55         0.01
  C38                         0.83      0.83      0.83      0.75         0.01
  C39                         0.83      0.83      0.83      0.62         0.01
  C40                         0.83      0.83      0.83      0.01         0.01
  C41                         0.83      0.83      0.83      0.01         0.01
  C43                         0.83      0.83      0.83      0.01         0.01
  C44                         0.83      0.83      0.83      0.83         0.01
  C45                         0.83      0.83      0.83      0.83         0.01
  C46                         0.83      0.83      0.83      0.83         0.01
  C48                         0.83      0.83      0.83      0.01         0.01
  C42                         0.83      0.83      0.83      0.59         0.01
  C50                         0.83      0.83      0.83      0.83         0.01
  C49                         0.83      0.83      0.83      0.78         0.01
  C01                         0.83      0.83      0.83      0.01         0.01
  C02                         0.83      0.83      0.83      0.01         0.01
  C03                         0.83      0.83      0.83      0.83         0.01
  C04                         0.83      0.83      0.83      0.80         0.01
  C05                         0.83      0.83      0.83      0.77         0.08
  C06                         0.83      0.83      0.83      0.01         0.01
  C07                         0.83      0.83      0.83      0.01         0.01
  C08                         0.83      0.83      0.83      0.01         0.01
  C09                         0.83      0.83      0.83      0.83         0.01
  C10                         0.83      0.83      0.83      0.83         0.01
  C11                         0.83      0.83      0.83      0.01         0.01
  C12                         0.83      0.83      0.83      0.01         0.01
  C13                         0.83      0.83      0.83      0.83         0.08
  C14                         0.83      0.83      0.83      0.83         0.01
  C15                         0.83      0.83      0.83      0.83         0.08
  C16                         0.83      0.83      0.83      0.83         0.01
  C17                         0.83      0.83      0.83      0.83         0.01
  C18                         0.83      0.83      0.83      0.01         0.01
  C19                         0.83      0.83      0.83      0.79         0.01
  C20                         0.83      0.83      0.83      0.83         0.01
  C21                         0.83      0.83      0.83      0.83         0.01
  C22                         0.83      0.83      0.83      0.62         0.01
  C47                         0.83      0.83      0.83      0.83         0.01
  Cout                        0.01      0.83      0.01      0.83         0.01
  
  
  ***************
  Pumping Summary
  ***************
  
  ---------------------------------------------------------------------------------------------------------
                                                  Min       Avg       Max     Total     Power    % Time Off
                        Percent   Number of      Flow      Flow      Flow    Volume     Usage    Pump Curve
  Pump                 Utilized   Start-Ups       CMS       CMS       CMS  10^6 ltr     Kw-hr    Low   High
  ---------------------------------------------------------------------------------------------------------
  P1                       0.00           0      0.00      0.00      0.00     0.000      0.00    0.0    0.0
  

  Analysis begun on:  Mon Nov 18 17:35:13 2024
  Analysis ended on:  Mon Nov 18 17:35:13 2024
  Total elapsed time: < 1 sec