
  EPA STORM WATER MANAGEMENT MODEL - VERSION 5.2 (Build 5.2.4)
  PYSWMM TOOLKIT API - VERSION v1.0 (2023-11-27)
  ------------------------------------------------------------

  WARNING 04: minimum elevation drop used for Conduit C23
  WARNING 04: minimum elevation drop used for Conduit C24
  WARNING 04: minimum elevation drop used for Conduit C25
  WARNING 04: minimum elevation drop used for Conduit C26
  WARNING 04: minimum elevation drop used for Conduit C27
  WARNING 04: minimum elevation drop used for Conduit C28
  WARNING 04: minimum elevation drop used for Conduit C29
  WARNING 04: minimum elevation drop used for Conduit C30
  WARNING 04: minimum elevation drop used for Conduit C31
  WARNING 04: minimum elevation drop used for Conduit C32
  WARNING 04: minimum elevation drop used for Conduit C33
  WARNING 04: minimum elevation drop used for Conduit C34
  WARNING 04: minimum elevation drop used for Conduit C35
  WARNING 04: minimum elevation drop used for Conduit C36
  WARNING 04: minimum elevation drop used for Conduit C37
  WARNING 04: minimum elevation drop used for Conduit C38
  WARNING 04: minimum elevation drop used for Conduit C39
  WARNING 04: minimum elevation drop used for Conduit C40
  WARNING 04: minimum elevation drop used for Conduit C41
  WARNING 04: minimum elevation drop used for Conduit C43
  WARNING 04: minimum elevation drop used for Conduit C44
  WARNING 04: minimum elevation drop used for Conduit C45
  WARNING 04: minimum elevation drop used for Conduit C46
  WARNING 04: minimum elevation drop used for Conduit C48
  WARNING 04: minimum elevation drop used for Conduit C42
  WARNING 04: minimum elevation drop used for Conduit C50
  WARNING 04: minimum elevation drop used for Conduit C49
  WARNING 04: minimum elevation drop used for Conduit C01
  WARNING 04: minimum elevation drop used for Conduit C02
  WARNING 04: minimum elevation drop used for Conduit C03
  WARNING 04: minimum elevation drop used for Conduit C04
  WARNING 04: minimum elevation drop used for Conduit C05
  WARNING 04: minimum elevation drop used for Conduit C06
  WARNING 04: minimum elevation drop used for Conduit C07
  WARNING 04: minimum elevation drop used for Conduit C08
  WARNING 04: minimum elevation drop used for Conduit C09
  WARNING 04: minimum elevation drop used for Conduit C10
  WARNING 04: minimum elevation drop used for Conduit C11
  WARNING 04: minimum elevation drop used for Conduit C12
  WARNING 04: minimum elevation drop used for Conduit C13
  WARNING 04: minimum elevation drop used for Conduit C14
  WARNING 04: minimum elevation drop used for Conduit C15
  WARNING 04: minimum elevation drop used for Conduit C16
  WARNING 04: minimum elevation drop used for Conduit C17
  WARNING 04: minimum elevation drop used for Conduit C18
  WARNING 04: minimum elevation drop used for Conduit C19
  WARNING 04: minimum elevation drop used for Conduit C20
  WARNING 04: minimum elevation drop used for Conduit C21
  WARNING 04: minimum elevation drop used for Conduit C22
  WARNING 04: minimum elevation drop used for Conduit C47
  WARNING 04: minimum elevation drop used for Conduit Cout
  
  ****************
  Analysis Options
  ****************
  Flow Units ............... CMS
  Process Models:
    Rainfall/Runoff ........ YES
    RDII ................... NO
    Snowmelt ............... NO
    Groundwater ............ NO
    Flow Routing ........... YES
    Ponding Allowed ........ NO
    Water Quality .......... NO
  Infiltration Method ...... HORTON
  Flow Routing Method ...... DYNWAVE
  Surcharge Method ......... EXTRAN
  Starting Date ............ 04/16/2023 12:00:00
  Ending Date .............. 04/16/2023 12:40:00
  Antecedent Dry Days ...... 0.0
  Report Time Step ......... 00:10:00
  Wet Time Step ............ 00:05:00
  Dry Time Step ............ 01:00:00
  Routing Time Step ........ 300.00 sec
  Variable Time Step ....... YES
  Maximum Trials ........... 8
  Number of Threads ........ 1
  Head Tolerance ........... 0.001524 m
  
  
  *********************
  Rainfall File Summary
  *********************
  Station    First        Last         Recording   Periods    Periods    Periods
  ID         Date         Date         Frequency  w/Precip    Missing    Malfunc.
  -------------------------------------------------------------------------------
  351        04/16/2023   04/16/2023      10 min         5          0          0

  
  
  **************************        Volume         Depth
  Runoff Quantity Continuity     hectare-m            mm
  **************************     ---------       -------
  Total Precipitation ......        99.056       990.600
  Evaporation Loss .........         0.000         0.000
  Infiltration Loss ........         0.000         0.000
  Surface Runoff ...........        91.978       919.816
  Final Storage ............        10.017       100.177
  Continuity Error (%) .....        -2.967
  
  
  **************************        Volume        Volume
  Flow Routing Continuity        hectare-m      10^6 ltr
  **************************     ---------     ---------
  Dry Weather Inflow .......         0.000         0.000
  Wet Weather Inflow .......        78.568       785.692
  Groundwater Inflow .......         0.000         0.000
  RDII Inflow ..............         0.000         0.000
  External Inflow ..........         0.000         0.000
  External Outflow .........         1.654        16.536
  Flooding Loss ............        75.111       751.116
  Evaporation Loss .........         0.000         0.000
  Exfiltration Loss ........         0.000         0.000
  Initial Stored Volume ....         0.046         0.463
  Final Stored Volume ......         1.883        18.831
  Continuity Error (%) .....        -0.042
  
  
  *************************
  Highest Continuity Errors
  *************************
  Node J3 (-26.50%)
  Node J17 (-23.84%)
  Node J24 (-14.26%)
  Node J13 (-13.61%)
  Node J18 (-11.14%)
  
  
  ***************************
  Time-Step Critical Elements
  ***************************
  Link Cout (98.68%)
  
  
  ********************************
  Highest Flow Instability Indexes
  ********************************
  Link C48 (5)
  Link C33 (4)
  Link Cout (4)
  Link C36 (3)
  Link C28 (3)
  
  
  *********************************
  Most Frequent Nonconverging Nodes
  *********************************
  Node OF (3.95%)
  Node J13 (2.63%)
  Node J6 (1.97%)
  Node J19 (1.97%)
  Node J25 (1.32%)
  
  
  *************************
  Routing Time Step Summary
  *************************
  Minimum Time Step           :     4.94 sec
  Average Time Step           :    15.79 sec
  Maximum Time Step           :   300.00 sec
  % of Time in Steady State   :     0.00
  Average Iterations per Step :     2.45
  % of Steps Not Converging   :     3.95
  Time Step Frequencies       :
     300.000 - 83.462 sec      :     0.66 %
     83.462 - 23.220 sec      :     0.00 %
     23.220 -  6.460 sec      :    98.68 %
      6.460 -  1.797 sec      :     0.66 %
      1.797 -  0.500 sec      :     0.00 %
  
  
  ***************************
  Subcatchment Runoff Summary
  ***************************
  
  ------------------------------------------------------------------------------------------------------------------------------
                            Total      Total      Total      Total     Imperv       Perv      Total       Total     Peak  Runoff
                           Precip      Runon       Evap      Infil     Runoff     Runoff     Runoff      Runoff   Runoff   Coeff
  Subcatchment                 mm         mm         mm         mm         mm         mm         mm    10^6 ltr      CMS
  ------------------------------------------------------------------------------------------------------------------------------
  S1                       990.60       0.00       0.00       0.00       9.81     980.79     990.60      249.89   218.94   1.000
  S2                       990.60       0.00       0.00       0.00       9.01     982.31     991.33        7.70     6.74   1.001
  S3                       990.60       0.00       0.00       0.00       9.01     981.59     990.60        2.05     1.80   1.000
  S4                       990.60       0.00       0.00       0.00       9.01     981.59     990.60        2.03     1.78   1.000
  S5                       990.60       0.00       0.00       0.00       9.01     981.59     990.60        2.96     2.60   1.000
  S6                       990.60       0.00       0.00       0.00       9.01     981.59     990.60        8.16     7.15   1.000
  S7                       990.60       0.00       0.00       0.00       9.01     981.59     990.60        1.54     1.35   1.000
  S8                       990.60       0.00       0.00       0.00       9.01     981.59     990.60        4.82     4.23   1.000
  S9                       990.60       0.00       0.00       0.00       9.01     981.59     990.60        5.96     5.22   1.000
  S10                      990.60       0.00       0.00       0.00       0.00     981.59     981.59        1.38     1.21   0.991
  S11                      990.60       0.00       0.00       0.00       9.01     921.58     930.59       13.61    12.67   0.939
  S12                      990.60       0.00       0.00       0.00       9.01     981.59     990.60        8.60     7.53   1.000
  S13                      990.60       0.00       0.00       0.00       0.00     981.59     981.59        8.28     7.26   0.991
  S14                      990.60       0.00       0.00       0.00       8.32     982.28     990.60        7.95     6.97   1.000
  S15                      990.60       0.00       0.00       0.00       8.32     982.28     990.60        7.43     6.51   1.000
  S16                      990.60       0.00       0.00       0.00       7.63     973.49     981.12       17.33    15.33   0.990
  S17                      990.60       0.00       0.00       0.00       7.63     825.51     833.14       28.37    28.91   0.841
  S18                      990.60       0.00       0.00       0.00       7.63     983.20     990.83        1.28     1.12   1.000
  S19                      990.60       0.00       0.00       0.00       7.63       0.00       7.63        0.02     0.02   0.008
  S20                      990.60       0.00       0.00       0.00       7.63     983.13     990.75        1.01     0.89   1.000
  S21                      990.60       0.00       0.00       0.00       7.63     951.88     959.51       15.91    14.38   0.969
  S22                      990.60       0.00       0.00       0.00       7.63     982.93     990.55        0.33     0.29   1.000
  S23                      990.60       0.00       0.00       0.00       7.63     982.97     990.60        0.39     0.34   1.000
  S24                      990.60       0.00       0.00       0.00       7.63     982.97     990.60        0.49     0.43   1.000
  S25                      990.60       0.00       0.00       0.00       7.63     982.97     990.60        0.58     0.51   1.000
  S26                      990.60       0.00       0.00       0.00       7.63     982.97     990.60        0.68     0.60   1.000
  S27                      990.60       0.00       0.00       0.00       7.63     984.16     991.79        8.24     7.21   1.001
  S28                      990.60       0.00       0.00       0.00       7.63     955.85     963.48        8.56     7.70   0.973
  S29                      990.60       0.00       0.00       0.00       7.63     983.05     990.68        0.91     0.80   1.000
  S30                      990.60       0.00       0.00       0.00       7.63     780.04     787.67       50.18    53.14   0.795
  S31                      990.60       0.00       0.00       0.00       7.92     982.68     990.60       13.42    11.76   1.000
  S32                      990.60       0.00       0.00       0.00       7.92     982.68     990.60        4.13     3.62   1.000
  S33                      990.60       0.00       0.00       0.00       9.31     981.29     990.60        3.08     2.70   1.000
  S34                      990.60       0.00       0.00       0.00       9.31     981.29     990.60        3.26     2.86   1.000
  S35                      990.60       0.00       0.00       0.00       9.01     981.59     990.60        3.98     3.49   1.000
  S36                      990.60       0.00       0.00       0.00       9.01     981.59     990.60        1.63     1.43   1.000
  S37                      990.60       0.00       0.00       0.00       9.01     981.59     990.60        3.57     3.12   1.000
  S38                      990.60       0.00       0.00       0.00       9.01     981.59     990.60        0.16     0.14   1.000
  S39                      990.60       0.00       0.00       0.00       9.01     981.59     990.60        4.06     3.56   1.000
  S40                      990.60       0.00       0.00       0.00       9.01     981.59     990.60        1.40     1.22   1.000
  S41                      990.60       0.00       0.00       0.00       9.01     981.59     990.60        2.25     1.97   1.000
  S42                      990.60       0.00       0.00       0.00       9.01     981.59     990.60        3.13     2.74   1.000
  S43                      990.60       0.00       0.00       0.00       9.01     981.59     990.60        7.13     6.25   1.000
  S44                      990.60       0.00       0.00       0.00       9.01     981.59     990.60        5.17     4.53   1.000
  S45                      990.60       0.00       0.00       0.00       9.01     981.59     990.60        0.53     0.46   1.000
  S46                      990.60       0.00       0.00       0.00       9.01     981.59     990.60        4.79     4.20   1.000
  S47                      990.60       0.00       0.00       0.00       9.01     981.59     990.60        9.69     8.49   1.000
  S48                      990.60       0.00       0.00       0.00       9.01     981.59     990.60       11.19     9.81   1.000
  S49                      990.60       0.00       0.00       0.00       9.01     981.59     990.60        6.81     5.96   1.000
  S50                      990.60       0.00       0.00       0.00       9.01     981.59     990.60        5.61     4.91   1.000
  S51                      990.60       0.00       0.00       0.00       9.01     981.59     990.60        3.31     2.90   1.000
  S52                      990.60       0.00       0.00       0.00       9.01     981.59     990.60        8.77     7.68   1.000
  S53                      990.60       0.00       0.00       0.00       9.01     956.09     965.11       11.76    10.57   0.974
  S54                      990.60       0.00       0.00       0.00       9.01     981.04     990.06        4.52     3.97   0.999
  S55                      990.60       0.00       0.00       0.00       9.01     981.59     990.60        0.38     0.33   1.000
  S56                      990.60       0.00       0.00       0.00       9.01     981.56     990.58        0.38     0.33   1.000
  S57                      990.60       0.00       0.00       0.00       9.01     981.59     990.60        5.12     4.49   1.000
  S58                      990.60       0.00       0.00       0.00       9.01     981.59     990.60        6.58     5.76   1.000
  S59                      990.60       0.00       0.00       0.00       9.01     981.59     990.60        6.39     5.60   1.000
  S60                      990.60       0.00       0.00       0.00       7.63     984.07     991.70        3.90     3.41   1.001
  S61                      990.60       0.00       0.00       0.00       7.63       0.00       7.63        0.03     0.02   0.008
  S62                      990.60       0.00       0.00       0.00       7.63     748.26     755.89       40.51    44.00   0.763
  S63                      990.60       0.00       0.00       0.00       7.63     982.97     990.60        9.31     8.16   1.000
  S64                      990.60       0.00       0.00       0.00       7.63     982.97     990.60       25.21    22.09   1.000
  S65                      990.60       0.00       0.00       0.00       7.63     982.97     990.60        4.02     3.52   1.000
  S66                      990.60       0.00       0.00       0.00       7.63     982.97     990.60        6.49     5.68   1.000
  S67                      990.60       0.00       0.00       0.00       7.63     982.97     990.60       12.13    10.62   1.000
  S68                      990.60       0.00       0.00       0.00       7.63     982.97     990.60       14.22    12.45   1.000
  S69                      990.60       0.00       0.00       0.00       7.63       0.00       7.63        0.19     0.17   0.008
  S70                      990.60       0.00       0.00       0.00       7.63     950.04     957.67       25.06    22.70   0.967
  S71                      990.60       0.00       0.00       0.00       9.01     981.59     990.60       14.57    12.77   1.000
  S72                      990.60       0.00       0.00       0.00       7.63     976.34     983.97        4.88     4.30   0.993
  S73                      990.60       0.00       0.00       0.00       7.63     982.97     990.60       20.76    18.19   1.000
  S74                      990.60       0.00       0.00       0.00       7.63       0.00       7.63        0.05     0.04   0.008
  S75                      990.60       0.00       0.00       0.00       7.63     982.97     990.60        0.66     0.58   1.000
  S76                      990.60       0.00       0.00       0.00       7.63     982.97     990.60       13.09    11.47   1.000
  S77                      990.60       0.00       0.00       0.00       7.63     982.97     990.60       10.59     9.28   1.000
  S78                      990.60       0.00       0.00       0.00       7.63     982.97     990.60        7.68     6.73   1.000
  S79                      990.60       0.00       0.00       0.00       9.01     981.59     990.60        6.73     5.89   1.000
  S80                      990.60       0.00       0.00       0.00       7.63     984.12     991.74        2.74     2.40   1.001
  S81                      990.60       0.00       0.00       0.00       7.63     982.97     990.60       11.20     9.82   1.000
  S82                      990.60       0.00       0.00       0.00       7.63     982.97     990.60       10.94     9.58   1.000
  S83                      990.60       0.00       0.00       0.00       7.63     982.97     990.60        7.03     6.16   1.000
  S84                      990.60       0.00       0.00       0.00       9.01     981.59     990.60        4.60     4.03   1.000
  S85                      990.60       0.00       0.00       0.00       9.01     964.26     973.27       12.03    10.73   0.983
  S86                      990.60       0.00       0.00       0.00       0.00     981.59     981.59       11.36     9.95   0.991
  S87                      990.60       0.00       0.00       0.00       9.01     981.59     990.60       12.30    10.78   1.000
  S88                      990.60       0.00       0.00       0.00       9.01     981.59     990.60        2.22     1.94   1.000
  S89                      990.60       0.00       0.00       0.00       9.01     981.59     990.60       10.02     8.77   1.000
  S90                      990.60       0.00       0.00       0.00       0.00     981.59     981.59        4.82     4.22   0.991
  S91                      990.60       0.00       0.00       0.00       9.01     981.59     990.60        1.63     1.43   1.000
  
  
  ******************
  Node Depth Summary
  ******************
  
  ---------------------------------------------------------------------------------
                                 Average  Maximum  Maximum  Time of Max    Reported
                                   Depth    Depth      HGL   Occurrence   Max Depth
  Node                 Type       Meters   Meters   Meters  days hr:min      Meters
  ---------------------------------------------------------------------------------
  J7                   JUNCTION     2.48     2.50     2.50     0  00:05        2.50
  J13                  JUNCTION     2.47     2.50     2.50     0  00:05        2.50
  J19                  JUNCTION     2.47     2.50     2.50     0  00:05        2.50
  J25                  JUNCTION     2.48     2.50     2.50     0  00:05        2.50
  J1                   JUNCTION     2.48     2.50     2.50     0  00:05        2.50
  J2                   JUNCTION     2.48     2.50     2.50     0  00:05        2.50
  J3                   JUNCTION     2.48     2.50     2.50     0  00:05        2.50
  J4                   JUNCTION     2.48     2.50     2.50     0  00:05        2.50
  J5                   JUNCTION     2.48     2.50     2.50     0  00:05        2.50
  J6                   JUNCTION     2.48     2.50     2.50     0  00:05        2.50
  J8                   JUNCTION     2.48     2.50     2.50     0  00:05        2.50
  J9                   JUNCTION     2.48     2.50     2.50     0  00:05        2.50
  J10                  JUNCTION     2.48     2.50     2.50     0  00:05        2.50
  J11                  JUNCTION     2.48     2.50     2.50     0  00:05        2.50
  J12                  JUNCTION     2.48     2.50     2.50     0  00:05        2.50
  J14                  JUNCTION     2.48     2.50     2.50     0  00:05        2.50
  J15                  JUNCTION     2.48     2.50     2.50     0  00:05        2.50
  J16                  JUNCTION     2.48     2.50     2.50     0  00:05        2.50
  J17                  JUNCTION     2.48     2.50     2.50     0  00:05        2.50
  J18                  JUNCTION     2.48     2.50     2.50     0  00:05        2.50
  J20                  JUNCTION     2.48     2.50     2.50     0  00:05        2.50
  J21                  JUNCTION     2.48     2.50     2.50     0  00:05        2.50
  J22                  JUNCTION     2.48     2.50     2.50     0  00:05        2.50
  J23                  JUNCTION     2.48     2.50     2.50     0  00:05        2.50
  J24                  JUNCTION     2.48     2.50     2.50     0  00:05        2.50
  J26                  JUNCTION     2.48     2.50     2.50     0  00:05        2.50
  J27                  JUNCTION     2.48     2.50     2.50     0  00:05        2.50
  J29                  JUNCTION     2.48     2.50     2.50     0  00:05        2.50
  J30                  JUNCTION     2.48     2.50     2.50     0  00:05        2.50
  J31                  JUNCTION     2.48     2.50     2.50     0  00:05        2.50
  J33                  JUNCTION     2.48     2.50     2.50     0  00:05        2.50
  J32                  JUNCTION     2.48     2.50     2.50     0  00:05        2.50
  J28                  JUNCTION     2.48     2.50     2.50     0  00:05        2.50
  OF                   OUTFALL      1.36     1.41     1.41     0  00:05        1.37
  
  
  *******************
  Node Inflow Summary
  *******************
  
  -------------------------------------------------------------------------------------------------
                                  Maximum  Maximum                  Lateral       Total        Flow
                                  Lateral    Total  Time of Max      Inflow      Inflow     Balance
                                   Inflow   Inflow   Occurrence      Volume      Volume       Error
  Node                 Type           CMS      CMS  days hr:min    10^6 ltr    10^6 ltr     Percent
  -------------------------------------------------------------------------------------------------
  J7                   JUNCTION    58.250   58.400     0  00:40        46.9        48.9       2.420
  J13                  JUNCTION     4.951    5.062     0  00:40        4.82        5.16     -11.977
  J19                  JUNCTION   234.657  234.929     0  00:40         230         231       1.972
  J25                  JUNCTION    28.856   28.856     0  00:40        23.7        23.7       1.176
  J1                   JUNCTION    19.697   19.984     0  00:35        19.3        21.4       2.405
  J2                   JUNCTION    14.798   15.289     0  00:35        14.5        18.6      12.280
  J3                   JUNCTION     0.660    2.448     0  00:05       0.647        1.65     -20.947
  J4                   JUNCTION    42.850   42.850     0  00:40          42          42       1.101
  J5                   JUNCTION    35.429   35.880     0  00:35        34.7        38.5       3.623
  J6                   JUNCTION    15.501   16.066     0  00:35        15.2        17.7       3.932
  J8                   JUNCTION    23.851   23.956     0  00:35        23.4        23.6       1.678
  J9                   JUNCTION    10.724   10.978     0  00:40        10.3        11.5       2.242
  J10                  JUNCTION    16.005   16.473     0  00:35        15.7        18.7       3.375
  J11                  JUNCTION    17.194   17.651     0  00:35        16.9        20.9       9.629
  J12                  JUNCTION    18.192   18.391     0  00:35        17.8        20.4       4.125
  J14                  JUNCTION    15.414   15.552     0  00:35        15.1        15.6       2.365
  J15                  JUNCTION    22.057   22.153     0  00:40        21.3        21.6       1.445
  J16                  JUNCTION    12.767   12.925     0  00:35        12.5          13       2.739
  J17                  JUNCTION     0.166    3.769     0  00:05       0.163        2.68     -19.248
  J18                  JUNCTION     0.582    1.789     0  00:05        0.57        1.92     -10.021
  J20                  JUNCTION    43.088   43.088     0  00:40        41.4        41.4       1.758
  J21                  JUNCTION    14.228   14.621     0  00:35        13.9        16.4       6.904
  J22                  JUNCTION    29.203   29.417     0  00:40        27.8        28.8       2.150
  J23                  JUNCTION    15.326   15.457     0  00:40        14.9        15.3       2.433
  J24                  JUNCTION     2.021    2.194     0  00:35        1.98        2.64     -12.480
  J26                  JUNCTION    12.568   12.568     0  00:35        12.3        12.3       0.811
  J27                  JUNCTION    11.023   11.170     0  00:35        10.8        12.1       8.576
  J29                  JUNCTION    18.079   18.453     0  00:35        17.7        20.2       3.682
  J30                  JUNCTION     0.000    2.822     0  00:05           0        1.43       4.078
  J31                  JUNCTION    53.004   53.004     0  00:40        41.5        41.5       0.208
  J33                  JUNCTION    17.788   17.788     0  00:40        17.4        17.4       1.887
  J32                  JUNCTION     8.115    8.297     0  00:35        7.96         9.2       2.227
  J28                  JUNCTION    12.976   13.158     0  00:35        12.7        13.7      -4.159
  OF                   OUTFALL      0.000    7.967     0  00:05           0        16.5       0.000
  
  
  **********************
  Node Surcharge Summary
  **********************
  
  Surcharging occurs when water rises above the top of the highest conduit.
  ---------------------------------------------------------------------
                                               Max. Height   Min. Depth
                                   Hours       Above Crown    Below Rim
  Node                 Type      Surcharged         Meters       Meters
  ---------------------------------------------------------------------
  J7                   JUNCTION        0.67          0.850        0.000
  J13                  JUNCTION        0.67          0.850        0.000
  J19                  JUNCTION        0.67          0.850        0.000
  J25                  JUNCTION        0.67          0.850        0.000
  J1                   JUNCTION        0.67          0.850        0.000
  J2                   JUNCTION        0.67          0.850        0.000
  J3                   JUNCTION        0.67          0.850        0.000
  J4                   JUNCTION        0.67          0.850        0.000
  J5                   JUNCTION        0.67          0.850        0.000
  J6                   JUNCTION        0.67          0.850        0.000
  J8                   JUNCTION        0.67          0.850        0.000
  J9                   JUNCTION        0.67          0.850        0.000
  J10                  JUNCTION        0.67          0.850        0.000
  J11                  JUNCTION        0.67          0.850        0.000
  J12                  JUNCTION        0.67          0.850        0.000
  J14                  JUNCTION        0.67          0.850        0.000
  J15                  JUNCTION        0.67          0.850        0.000
  J16                  JUNCTION        0.67          0.850        0.000
  J17                  JUNCTION        0.67          0.850        0.000
  J18                  JUNCTION        0.67          0.850        0.000
  J20                  JUNCTION        0.67          0.850        0.000
  J21                  JUNCTION        0.67          0.850        0.000
  J22                  JUNCTION        0.67          0.850        0.000
  J23                  JUNCTION        0.67          0.850        0.000
  J24                  JUNCTION        0.67          0.850        0.000
  J26                  JUNCTION        0.67          0.850        0.000
  J27                  JUNCTION        0.67          0.850        0.000
  J29                  JUNCTION        0.67          0.850        0.000
  J30                  JUNCTION        0.67          0.850        0.000
  J31                  JUNCTION        0.67          0.850        0.000
  J33                  JUNCTION        0.67          0.850        0.000
  J32                  JUNCTION        0.67          0.850        0.000
  J28                  JUNCTION        0.67          0.850        0.000
  
  
  *********************
  Node Flooding Summary
  *********************
  
  Flooding refers to all water that overflows a node, whether it ponds or not.
  --------------------------------------------------------------------------
                                                             Total   Maximum
                                 Maximum   Time of Max       Flood    Ponded
                        Hours       Rate    Occurrence      Volume     Depth
  Node                 Flooded       CMS   days hr:min    10^6 ltr    Meters
  --------------------------------------------------------------------------
  J7                      0.67    58.159      0  00:40      48.726     0.000
  J13                     0.49     4.899      0  00:40       4.316     0.000
  J19                     0.58   227.576      0  00:40     213.096     0.000
  J25                     0.66    28.408      0  00:40      22.002     0.000
  J1                      0.67    19.778      0  00:35      19.879     0.000
  J2                      0.58    15.287      0  00:35      16.651     0.000
  J3                      0.46     0.678      0  00:35       0.622     0.000
  J4                      0.65    42.352      0  00:40      37.528     0.000
  J5                      0.67    35.659      0  00:35      38.059     0.000
  J6                      0.49    15.729      0  00:37      14.179     0.000
  J8                      0.66    23.679      0  00:40      21.892     0.000
  J9                      0.58    10.644      0  00:40       9.393     0.000
  J10                     0.58    16.260      0  00:35      16.131     0.000
  J11                     0.58    17.451      0  00:35      17.910     0.000
  J12                     0.67    18.030      0  00:40      19.278     0.000
  J14                     0.67    15.345      0  00:40      15.087     0.000
  J15                     0.65    21.703      0  00:40      19.464     0.000
  J16                     0.56    12.597      0  00:40      10.995     0.000
  J17                     0.58     1.190      0  00:07       1.273     0.000
  J18                     0.58     0.734      0  00:35       0.985     0.000
  J20                     0.67    42.781      0  00:40      39.644     0.000
  J21                     0.58    14.472      0  00:35      14.901     0.000
  J22                     0.67    29.368      0  00:40      28.657     0.000
  J23                     0.67    15.286      0  00:40      14.454     0.000
  J24                     0.58     2.026      0  00:35       1.949     0.000
  J26                     0.56    12.459      0  00:40      10.892     0.000
  J27                     0.58    11.096      0  00:35      11.052     0.000
  J29                     0.67    18.428      0  00:35      20.179     0.000
  J30                     0.07     0.323      0  00:05       0.032     0.000
  J31                     0.58    52.553      0  00:40      39.626     0.000
  J33                     0.67    17.627      0  00:40      16.536     0.000
  J32                     0.67     8.108      0  00:40       8.128     0.000
  J28                     0.58    12.954      0  00:40      11.968     0.000
  
  
  ***********************
  Outfall Loading Summary
  ***********************
  
  -----------------------------------------------------------
                         Flow       Avg       Max       Total
                         Freq      Flow      Flow      Volume
  Outfall Node           Pcnt       CMS       CMS    10^6 ltr
  -----------------------------------------------------------
  OF                   100.00     7.265     7.967      16.536
  -----------------------------------------------------------
  System               100.00     7.265     7.967      16.536
  
  
  ********************
  Link Flow Summary
  ********************
  
  -----------------------------------------------------------------------------
                                 Maximum  Time of Max   Maximum    Max/    Max/
                                  |Flow|   Occurrence   |Veloc|    Full    Full
  Link                 Type          CMS  days hr:min     m/sec    Flow   Depth
  -----------------------------------------------------------------------------
  P1                   PUMP        0.000     0  00:00                          
  C23                  CONDUIT     0.477     0  00:05      0.22    4.15    1.00
  C24                  CONDUIT     1.223     0  00:05      0.57   10.59    1.00
  C25                  CONDUIT     1.963     0  00:05      0.92   15.68    1.00
  C26                  CONDUIT     4.903     0  00:05      2.29   38.36    1.00
  C27                  CONDUIT     0.736     0  00:05      0.34    6.06    1.00
  C28                  CONDUIT     1.083     0  00:05      0.51    7.46    1.00
  C29                  CONDUIT     2.874     0  00:05      1.34   20.24    1.00
  C30                  CONDUIT     1.520     0  00:05      0.71   13.36    1.00
  C31                  CONDUIT     0.045     0  00:05      0.02    0.40    1.00
  C32                  CONDUIT     0.509     0  00:05      0.24    3.29    1.00
  C33                  CONDUIT     2.303     0  00:05      1.08   13.48    1.00
  C34                  CONDUIT     3.004     0  00:05      1.40   23.90    1.00
  C35                  CONDUIT     1.156     0  00:05      0.54   12.29    1.00
  C36                  CONDUIT     3.411     0  00:05      1.59   32.18    1.00
  C37                  CONDUIT     6.732     0  00:05      3.15   46.22    1.00
  C38                  CONDUIT     0.111     0  00:05      0.05    0.77    1.00
  C39                  CONDUIT     3.515     0  00:05      1.64   22.28    1.00
  C40                  CONDUIT     2.066     0  00:05      0.97   14.73    1.00
  C41                  CONDUIT     0.619     0  00:05      0.29    4.80    1.00
  C43                  CONDUIT     1.050     0  00:05      0.49    8.01    1.00
  C44                  CONDUIT     2.115     0  00:05      0.99   18.06    1.00
  C45                  CONDUIT     1.740     0  00:05      0.81   14.93    1.00
  C46                  CONDUIT     2.822     0  00:05      1.32   23.38    1.00
  C48                  CONDUIT     2.965     0  00:05      1.39   23.41    1.00
  C42                  CONDUIT     0.730     0  00:05      0.34    5.79    1.00
  C50                  CONDUIT     1.439     0  00:05      0.67   13.90    1.00
  C49                  CONDUIT     0.027     0  00:05      0.01    0.23    1.00
  C01                  CONDUIT     1.930     0  00:05      0.90   15.85    1.00
  C02                  CONDUIT     0.456     0  00:05      0.21    3.61    1.00
  C03                  CONDUIT     0.053     0  00:05      0.02    0.42    1.00
  C04                  CONDUIT     0.819     0  00:05      0.38    6.44    1.00
  C05                  CONDUIT     0.886     0  00:05      0.41    7.07    1.00
  C06                  CONDUIT     0.366     0  00:05      0.17    3.22    1.00
  C07                  CONDUIT     1.806     0  00:05      0.84   15.84    1.00
  C08                  CONDUIT     0.184     0  00:05      0.09    1.50    1.00
  C09                  CONDUIT     0.590     0  00:05      0.28    5.17    1.00
  C10                  CONDUIT     0.306     0  00:15      0.14    2.44    1.00
  C11                  CONDUIT     0.153     0  00:15      0.07    1.35    1.00
  C12                  CONDUIT     1.479     0  00:05      0.69   12.74    1.00
  C13                  CONDUIT     0.640     0  00:05      0.30    5.57    1.00
  C14                  CONDUIT     0.730     0  00:05      0.34    5.80    1.00
  C15                  CONDUIT     1.677     0  00:05      0.78   13.33    1.00
  C16                  CONDUIT     2.956     0  00:05      1.38   25.95    1.00
  C17                  CONDUIT     4.929     0  00:05      2.31   43.50    1.00
  C18                  CONDUIT     1.593     0  00:05      0.74   14.16    1.00
  C19                  CONDUIT     3.537     0  00:05      1.65   28.10    1.00
  C20                  CONDUIT     1.021     0  00:05      0.48    9.09    1.00
  C21                  CONDUIT     1.979     0  00:05      0.93   18.70    1.00
  C22                  CONDUIT     2.138     0  00:05      1.00   16.88    1.00
  C47                  CONDUIT     1.654     0  00:05      0.77   17.00    1.00
  Cout                 CONDUIT     7.967     0  00:05      3.85   62.91    0.93
  
  
  ***************************
  Flow Classification Summary
  ***************************
  
  -------------------------------------------------------------------------------------
                      Adjusted    ---------- Fraction of Time in Flow Class ---------- 
                       /Actual         Up    Down  Sub   Sup   Up    Down  Norm  Inlet 
  Conduit               Length    Dry  Dry   Dry   Crit  Crit  Crit  Crit  Ltd   Ctrl  
  -------------------------------------------------------------------------------------
  C23                     1.00   0.00  0.00  0.00  1.00  0.00  0.00  0.00  0.00  0.00
  C24                     1.00   0.00  0.00  0.00  1.00  0.00  0.00  0.00  0.00  0.00
  C25                     1.00   0.00  0.00  0.00  1.00  0.00  0.00  0.00  0.00  0.00
  C26                     1.00   0.00  0.00  0.00  1.00  0.00  0.00  0.00  0.00  0.00
  C27                     1.00   0.00  0.00  0.00  1.00  0.00  0.00  0.00  0.00  0.00
  C28                     1.00   0.00  0.00  0.00  1.00  0.00  0.00  0.00  0.00  0.00
  C29                     1.00   0.00  0.00  0.00  1.00  0.00  0.00  0.00  0.00  0.00
  C30                     1.00   0.00  0.00  0.00  1.00  0.00  0.00  0.00  0.00  0.00
  C31                     1.00   0.00  0.00  0.00  1.00  0.00  0.00  0.00  0.00  0.00
  C32                     1.00   0.00  0.00  0.00  1.00  0.00  0.00  0.00  0.00  0.00
  C33                     1.00   0.00  0.00  0.00  1.00  0.00  0.00  0.00  0.00  0.00
  C34                     1.00   0.00  0.00  0.00  1.00  0.00  0.00  0.00  0.00  0.00
  C35                     1.00   0.00  0.00  0.00  1.00  0.00  0.00  0.00  0.00  0.00
  C36                     1.00   0.00  0.00  0.00  1.00  0.00  0.00  0.00  0.00  0.00
  C37                     1.00   0.00  0.00  0.00  1.00  0.00  0.00  0.00  0.00  0.00
  C38                     1.00   0.00  0.00  0.00  1.00  0.00  0.00  0.00  0.00  0.00
  C39                     1.00   0.00  0.00  0.00  1.00  0.00  0.00  0.00  0.00  0.00
  C40                     1.00   0.00  0.00  0.00  1.00  0.00  0.00  0.00  0.00  0.00
  C41                     1.00   0.00  0.00  0.00  1.00  0.00  0.00  0.00  0.00  0.00
  C43                     1.00   0.00  0.00  0.00  1.00  0.00  0.00  0.00  0.00  0.00
  C44                     1.00   0.00  0.00  0.00  1.00  0.00  0.00  0.00  0.00  0.00
  C45                     1.00   0.00  0.00  0.00  1.00  0.00  0.00  0.00  0.00  0.00
  C46                     1.00   0.00  0.00  0.00  1.00  0.00  0.00  0.00  0.00  0.00
  C48                     1.00   0.00  0.00  0.00  1.00  0.00  0.00  0.00  0.00  0.00
  C42                     1.00   0.00  0.00  0.00  1.00  0.00  0.00  0.00  0.00  0.00
  C50                     1.00   0.00  0.00  0.00  1.00  0.00  0.00  0.00  0.00  0.00
  C49                     1.00   0.00  0.00  0.00  1.00  0.00  0.00  0.00  0.00  0.00
  C01                     1.00   0.00  0.00  0.00  1.00  0.00  0.00  0.00  0.00  0.00
  C02                     1.00   0.00  0.00  0.00  1.00  0.00  0.00  0.00  0.00  0.00
  C03                     1.00   0.00  0.00  0.00  1.00  0.00  0.00  0.00  0.00  0.00
  C04                     1.00   0.00  0.00  0.00  1.00  0.00  0.00  0.00  0.00  0.00
  C05                     1.00   0.00  0.00  0.00  1.00  0.00  0.00  0.00  0.00  0.00
  C06                     1.00   0.00  0.00  0.00  1.00  0.00  0.00  0.00  0.00  0.00
  C07                     1.00   0.00  0.00  0.00  1.00  0.00  0.00  0.00  0.00  0.00
  C08                     1.00   0.00  0.00  0.00  1.00  0.00  0.00  0.00  0.00  0.00
  C09                     1.00   0.00  0.00  0.00  1.00  0.00  0.00  0.00  0.00  0.00
  C10                     1.00   0.00  0.00  0.00  1.00  0.00  0.00  0.00  0.00  0.00
  C11                     1.00   0.00  0.00  0.00  1.00  0.00  0.00  0.00  0.00  0.00
  C12                     1.00   0.00  0.00  0.00  1.00  0.00  0.00  0.00  0.00  0.00
  C13                     1.00   0.00  0.00  0.00  1.00  0.00  0.00  0.00  0.00  0.00
  C14                     1.00   0.00  0.00  0.00  1.00  0.00  0.00  0.00  0.00  0.00
  C15                     1.00   0.00  0.00  0.00  1.00  0.00  0.00  0.00  0.00  0.00
  C16                     1.00   0.00  0.00  0.00  1.00  0.00  0.00  0.00  0.01  0.00
  C17                     1.00   0.00  0.00  0.00  1.00  0.00  0.00  0.00  0.00  0.00
  C18                     1.00   0.00  0.00  0.00  1.00  0.00  0.00  0.00  0.00  0.00
  C19                     1.00   0.00  0.00  0.00  1.00  0.00  0.00  0.00  0.00  0.00
  C20                     1.00   0.00  0.00  0.00  1.00  0.00  0.00  0.00  0.00  0.00
  C21                     1.00   0.00  0.00  0.00  1.00  0.00  0.00  0.00  0.01  0.00
  C22                     1.00   0.00  0.00  0.00  1.00  0.00  0.00  0.00  0.00  0.00
  C47                     1.00   0.00  0.00  0.00  1.00  0.00  0.00  0.00  0.00  0.00
  Cout                    1.00   0.00  0.00  0.00  1.00  0.00  0.00  0.00  0.00  0.00
  
  
  *************************
  Conduit Surcharge Summary
  *************************
  
  ----------------------------------------------------------------------------
                                                           Hours        Hours 
                         --------- Hours Full --------   Above Full   Capacity
  Conduit                Both Ends  Upstream  Dnstream   Normal Flow   Limited
  ----------------------------------------------------------------------------
  C23                         0.67      0.67      0.67      0.67         0.09
  C24                         0.67      0.67      0.67      0.67         0.01
  C25                         0.67      0.67      0.67      0.67         0.08
  C26                         0.67      0.67      0.67      0.67         0.08
  C27                         0.67      0.67      0.67      0.64         0.09
  C28                         0.67      0.67      0.67      0.67         0.09
  C29                         0.67      0.67      0.67      0.67         0.08
  C30                         0.67      0.67      0.67      0.67         0.01
  C31                         0.67      0.67      0.67      0.01         0.01
  C32                         0.67      0.67      0.67      0.16         0.21
  C33                         0.67      0.67      0.67      0.47         0.01
  C34                         0.67      0.67      0.67      0.66         0.01
  C35                         0.67      0.67      0.67      0.65         0.18
  C36                         0.67      0.67      0.67      0.66         0.18
  C37                         0.67      0.67      0.67      0.67         0.01
  C38                         0.67      0.67      0.67      0.01         0.01
  C39                         0.67      0.67      0.67      0.41         0.21
  C40                         0.67      0.67      0.67      0.43         0.10
  C41                         0.67      0.67      0.67      0.25         0.01
  C43                         0.67      0.67      0.67      0.67         0.01
  C44                         0.67      0.67      0.67      0.67         0.01
  C45                         0.67      0.67      0.67      0.67         0.25
  C46                         0.67      0.67      0.67      0.67         0.01
  C48                         0.67      0.67      0.67      0.67         0.09
  C42                         0.67      0.67      0.67      0.19         0.25
  C50                         0.67      0.67      0.67      0.67         0.01
  C49                         0.67      0.67      0.67      0.01         0.01
  C01                         0.67      0.67      0.67      0.67         0.08
  C02                         0.67      0.67      0.67      0.67         0.01
  C03                         0.67      0.67      0.67      0.01         0.01
  C04                         0.67      0.67      0.67      0.31         0.01
  C05                         0.66      0.67      0.66      0.58         0.08
  C06                         0.67      0.67      0.67      0.67         0.01
  C07                         0.67      0.67      0.67      0.67         0.02
  C08                         0.67      0.67      0.67      0.42         0.02
  C09                         0.67      0.67      0.67      0.27         0.11
  C10                         0.67      0.67      0.67      0.56         0.11
  C11                         0.67      0.67      0.67      0.25         0.01
  C12                         0.67      0.67      0.67      0.58         0.09
  C13                         0.67      0.67      0.67      0.58         0.09
  C14                         0.67      0.67      0.67      0.43         0.09
  C15                         0.67      0.67      0.67      0.67         0.01
  C16                         0.66      0.66      0.67      0.67         0.01
  C17                         0.67      0.67      0.67      0.67         0.01
  C18                         0.67      0.67      0.67      0.67         0.01
  C19                         0.66      0.67      0.66      0.48         0.17
  C20                         0.67      0.67      0.67      0.58         0.01
  C21                         0.66      0.66      0.67      0.66         0.09
  C22                         0.67      0.67      0.67      0.67         0.01
  C47                         0.67      0.67      0.67      0.67         0.09
  Cout                        0.01      0.67      0.01      0.67         0.01
  
  
  ***************
  Pumping Summary
  ***************
  
  ---------------------------------------------------------------------------------------------------------
                                                  Min       Avg       Max     Total     Power    % Time Off
                        Percent   Number of      Flow      Flow      Flow    Volume     Usage    Pump Curve
  Pump                 Utilized   Start-Ups       CMS       CMS       CMS  10^6 ltr     Kw-hr    Low   High
  ---------------------------------------------------------------------------------------------------------
  P1                       0.00           0      0.00      0.00      0.00     0.000      0.00    0.0    0.0
  

  Analysis begun on:  Thu Nov 21 12:16:28 2024
  Analysis ended on:  Thu Nov 21 12:16:28 2024
  Total elapsed time: < 1 sec