
  EPA STORM WATER MANAGEMENT MODEL - VERSION 5.2 (Build 5.2.4)
  PYSWMM TOOLKIT API - VERSION v1.0 (2023-11-27)
  ------------------------------------------------------------

  WARNING 04: minimum elevation drop used for Conduit C23
  WARNING 04: minimum elevation drop used for Conduit C24
  WARNING 04: minimum elevation drop used for Conduit C25
  WARNING 04: minimum elevation drop used for Conduit C26
  WARNING 04: minimum elevation drop used for Conduit C27
  WARNING 04: minimum elevation drop used for Conduit C28
  WARNING 04: minimum elevation drop used for Conduit C29
  WARNING 04: minimum elevation drop used for Conduit C30
  WARNING 04: minimum elevation drop used for Conduit C31
  WARNING 04: minimum elevation drop used for Conduit C32
  WARNING 04: minimum elevation drop used for Conduit C33
  WARNING 04: minimum elevation drop used for Conduit C34
  WARNING 04: minimum elevation drop used for Conduit C35
  WARNING 04: minimum elevation drop used for Conduit C36
  WARNING 04: minimum elevation drop used for Conduit C37
  WARNING 04: minimum elevation drop used for Conduit C38
  WARNING 04: minimum elevation drop used for Conduit C39
  WARNING 04: minimum elevation drop used for Conduit C40
  WARNING 04: minimum elevation drop used for Conduit C41
  WARNING 04: minimum elevation drop used for Conduit C43
  WARNING 04: minimum elevation drop used for Conduit C44
  WARNING 04: minimum elevation drop used for Conduit C45
  WARNING 04: minimum elevation drop used for Conduit C46
  WARNING 04: minimum elevation drop used for Conduit C48
  WARNING 04: minimum elevation drop used for Conduit C42
  WARNING 04: minimum elevation drop used for Conduit C50
  WARNING 04: minimum elevation drop used for Conduit C49
  WARNING 04: minimum elevation drop used for Conduit C01
  WARNING 04: minimum elevation drop used for Conduit C02
  WARNING 04: minimum elevation drop used for Conduit C03
  WARNING 04: minimum elevation drop used for Conduit C04
  WARNING 04: minimum elevation drop used for Conduit C05
  WARNING 04: minimum elevation drop used for Conduit C06
  WARNING 04: minimum elevation drop used for Conduit C07
  WARNING 04: minimum elevation drop used for Conduit C08
  WARNING 04: minimum elevation drop used for Conduit C09
  WARNING 04: minimum elevation drop used for Conduit C10
  WARNING 04: minimum elevation drop used for Conduit C11
  WARNING 04: minimum elevation drop used for Conduit C12
  WARNING 04: minimum elevation drop used for Conduit C13
  WARNING 04: minimum elevation drop used for Conduit C14
  WARNING 04: minimum elevation drop used for Conduit C15
  WARNING 04: minimum elevation drop used for Conduit C16
  WARNING 04: minimum elevation drop used for Conduit C17
  WARNING 04: minimum elevation drop used for Conduit C18
  WARNING 04: minimum elevation drop used for Conduit C19
  WARNING 04: minimum elevation drop used for Conduit C20
  WARNING 04: minimum elevation drop used for Conduit C21
  WARNING 04: minimum elevation drop used for Conduit C22
  WARNING 04: minimum elevation drop used for Conduit C47
  WARNING 04: minimum elevation drop used for Conduit Cout
  
  ****************
  Analysis Options
  ****************
  Flow Units ............... CMS
  Process Models:
    Rainfall/Runoff ........ YES
    RDII ................... NO
    Snowmelt ............... NO
    Groundwater ............ NO
    Flow Routing ........... YES
    Ponding Allowed ........ NO
    Water Quality .......... NO
  Infiltration Method ...... HORTON
  Flow Routing Method ...... DYNWAVE
  Surcharge Method ......... EXTRAN
  Starting Date ............ 05/19/2023 12:00:00
  Ending Date .............. 05/19/2023 12:40:00
  Antecedent Dry Days ...... 0.0
  Report Time Step ......... 00:10:00
  Wet Time Step ............ 00:05:00
  Dry Time Step ............ 01:00:00
  Routing Time Step ........ 300.00 sec
  Variable Time Step ....... YES
  Maximum Trials ........... 8
  Number of Threads ........ 1
  Head Tolerance ........... 0.001524 m
  
  
  *********************
  Rainfall File Summary
  *********************
  Station    First        Last         Recording   Periods    Periods    Periods
  ID         Date         Date         Frequency  w/Precip    Missing    Malfunc.
  -------------------------------------------------------------------------------
  384        05/19/2023   05/19/2023      10 min         5          0          0

  
  
  **************************        Volume         Depth
  Runoff Quantity Continuity     hectare-m            mm
  **************************     ---------       -------
  Total Precipitation ......       193.032      1930.400
  Evaporation Loss .........         0.000         0.000
  Infiltration Loss ........         0.000         0.000
  Surface Runoff ...........       182.469      1824.759
  Final Storage ............        14.355       143.559
  Continuity Error (%) .....        -1.964
  
  
  **************************        Volume        Volume
  Flow Routing Continuity        hectare-m      10^6 ltr
  **************************     ---------     ---------
  Dry Weather Inflow .......         0.000         0.000
  Wet Weather Inflow .......       167.007      1670.088
  Groundwater Inflow .......         0.000         0.000
  RDII Inflow ..............         0.000         0.000
  External Inflow ..........         0.000         0.000
  External Outflow .........         1.664        16.644
  Flooding Loss ............       158.447      1584.489
  Evaporation Loss .........         0.000         0.000
  Exfiltration Loss ........         0.000         0.000
  Initial Stored Volume ....         0.046         0.463
  Final Stored Volume ......         1.883        18.831
  Continuity Error (%) .....         3.028
  
  
  *************************
  Highest Continuity Errors
  *************************
  Node J30 (22.55%)
  Node J3 (21.69%)
  Node J17 (15.18%)
  Node J18 (14.25%)
  Node J21 (4.43%)
  
  
  ***************************
  Time-Step Critical Elements
  ***************************
  Link Cout (98.69%)
  
  
  ********************************
  Highest Flow Instability Indexes
  ********************************
  Link C24 (2)
  Link C31 (2)
  Link C33 (2)
  Link C46 (2)
  Link C49 (2)
  
  
  *********************************
  Most Frequent Nonconverging Nodes
  *********************************
  Convergence obtained at all time steps.
  
  
  *************************
  Routing Time Step Summary
  *************************
  Minimum Time Step           :     4.82 sec
  Average Time Step           :    15.69 sec
  Maximum Time Step           :   300.00 sec
  % of Time in Steady State   :     0.00
  Average Iterations per Step :     2.02
  % of Steps Not Converging   :     0.00
  Time Step Frequencies       :
     300.000 - 83.462 sec      :     0.66 %
     83.462 - 23.220 sec      :     0.00 %
     23.220 -  6.460 sec      :    98.68 %
      6.460 -  1.797 sec      :     0.66 %
      1.797 -  0.500 sec      :     0.00 %
  
  
  ***************************
  Subcatchment Runoff Summary
  ***************************
  
  ------------------------------------------------------------------------------------------------------------------------------
                            Total      Total      Total      Total     Imperv       Perv      Total       Total     Peak  Runoff
                           Precip      Runon       Evap      Infil     Runoff     Runoff     Runoff      Runoff   Runoff   Coeff
  Subcatchment                 mm         mm         mm         mm         mm         mm         mm    10^6 ltr      CMS
  ------------------------------------------------------------------------------------------------------------------------------
  S1                      1930.40       0.00       0.00       0.00      19.11    1911.29    1930.40      486.97   267.00   1.000
  S2                      1930.40       0.00       0.00       0.00      17.57    1912.69    1930.25       15.00     8.22   1.000
  S3                      1930.40       0.00       0.00       0.00      17.57    1912.83    1930.40        4.00     2.19   1.000
  S4                      1930.40       0.00       0.00       0.00      17.57    1912.83    1930.40        3.96     2.17   1.000
  S5                      1930.40       0.00       0.00       0.00      17.57    1912.83    1930.40        5.77     3.16   1.000
  S6                      1930.40       0.00       0.00       0.00      17.57    1912.83    1930.40       15.91     8.72   1.000
  S7                      1930.40       0.00       0.00       0.00      17.57    1912.83    1930.40        2.99     1.64   1.000
  S8                      1930.40       0.00       0.00       0.00      17.57    1912.83    1930.40        9.40     5.15   1.000
  S9                      1930.40       0.00       0.00       0.00      17.57    1912.83    1930.40       11.62     6.37   1.000
  S10                     1930.40       0.00       0.00       0.00       0.00    1912.83    1912.83        2.70     1.48   0.991
  S11                     1930.40       0.00       0.00       0.00      17.57    1864.95    1882.52       27.54    15.46   0.975
  S12                     1930.40       0.00       0.00       0.00      17.57    1912.83    1930.40       16.76     9.19   1.000
  S13                     1930.40       0.00       0.00       0.00       0.00    1912.83    1912.83       16.14     8.85   0.991
  S14                     1930.40       0.00       0.00       0.00      16.21    1914.18    1930.40       15.50     8.50   1.000
  S15                     1930.40       0.00       0.00       0.00      16.21    1914.18    1930.40       14.48     7.94   1.000
  S16                     1930.40       0.00       0.00       0.00      14.86    1910.81    1925.68       34.01    18.69   0.998
  S17                     1930.40       0.00       0.00       0.00      14.86    1759.56    1774.43       60.42    35.52   0.919
  S18                     1930.40       0.00       0.00       0.00      14.86    1915.51    1930.37        2.49     1.37   1.000
  S19                     1930.40       0.00       0.00       0.00      14.86       0.00      14.86        0.04     0.02   0.008
  S20                     1930.40       0.00       0.00       0.00      14.86    1915.39    1930.25        1.97     1.08   1.000
  S21                     1930.40       0.00       0.00       0.00      14.86    1894.92    1909.78       31.66    17.54   0.989
  S22                     1930.40       0.00       0.00       0.00      14.86    1915.46    1930.32        0.64     0.35   1.000
  S23                     1930.40       0.00       0.00       0.00      14.86    1915.54    1930.40        0.75     0.41   1.000
  S24                     1930.40       0.00       0.00       0.00      14.86    1915.54    1930.40        0.95     0.52   1.000
  S25                     1930.40       0.00       0.00       0.00      14.86    1915.54    1930.40        1.14     0.62   1.000
  S26                     1930.40       0.00       0.00       0.00      14.86    1915.54    1930.40        1.33     0.73   1.000
  S27                     1930.40       0.00       0.00       0.00      14.86    1915.50    1930.37       16.04     8.80   1.000
  S28                     1930.40       0.00       0.00       0.00      14.86    1898.23    1913.09       16.99     9.40   0.991
  S29                     1930.40       0.00       0.00       0.00      14.86    1915.43    1930.29        1.78     0.97   1.000
  S30                     1930.40       0.00       0.00       0.00      14.86    1706.25    1721.11      109.64    65.76   0.892
  S31                     1930.40       0.00       0.00       0.00      15.44    1914.96    1930.40       26.16    14.34   1.000
  S32                     1930.40       0.00       0.00       0.00      15.44    1914.96    1930.40        8.05     4.41   1.000
  S33                     1930.40       0.00       0.00       0.00      18.14    1912.25    1930.40        6.00     3.29   1.000
  S34                     1930.40       0.00       0.00       0.00      18.14    1912.25    1930.40        6.35     3.48   1.000
  S35                     1930.40       0.00       0.00       0.00      17.57    1912.83    1930.40        7.76     4.25   1.000
  S36                     1930.40       0.00       0.00       0.00      17.57    1912.83    1930.40        3.19     1.75   1.000
  S37                     1930.40       0.00       0.00       0.00      17.57    1912.83    1930.40        6.95     3.81   1.000
  S38                     1930.40       0.00       0.00       0.00      17.57    1912.83    1930.40        0.31     0.17   1.000
  S39                     1930.40       0.00       0.00       0.00      17.57    1912.83    1930.40        7.91     4.34   1.000
  S40                     1930.40       0.00       0.00       0.00      17.57    1912.83    1930.40        2.72     1.49   1.000
  S41                     1930.40       0.00       0.00       0.00      17.57    1912.83    1930.40        4.38     2.40   1.000
  S42                     1930.40       0.00       0.00       0.00      17.57    1912.83    1930.40        6.10     3.34   1.000
  S43                     1930.40       0.00       0.00       0.00      17.57    1912.83    1930.40       13.90     7.62   1.000
  S44                     1930.40       0.00       0.00       0.00      17.57    1912.83    1930.40       10.08     5.53   1.000
  S45                     1930.40       0.00       0.00       0.00      17.57    1912.83    1930.40        1.02     0.56   1.000
  S46                     1930.40       0.00       0.00       0.00      17.57    1912.83    1930.40        9.34     5.12   1.000
  S47                     1930.40       0.00       0.00       0.00      17.57    1912.83    1930.40       18.88    10.35   1.000
  S48                     1930.40       0.00       0.00       0.00      17.57    1912.83    1930.40       21.81    11.96   1.000
  S49                     1930.40       0.00       0.00       0.00      17.57    1912.83    1930.40       13.26     7.27   1.000
  S50                     1930.40       0.00       0.00       0.00      17.57    1912.83    1930.40       10.93     5.99   1.000
  S51                     1930.40       0.00       0.00       0.00      17.57    1912.83    1930.40        6.45     3.54   1.000
  S52                     1930.40       0.00       0.00       0.00      17.57    1912.83    1930.40       17.08     9.37   1.000
  S53                     1930.40       0.00       0.00       0.00      17.57    1896.83    1914.40       23.32    12.89   0.992
  S54                     1930.40       0.00       0.00       0.00      17.57    1912.33    1929.90        8.82     4.84   1.000
  S55                     1930.40       0.00       0.00       0.00      17.57    1912.83    1930.40        0.73     0.40   1.000
  S56                     1930.40       0.00       0.00       0.00      17.57    1912.74    1930.31        0.73     0.40   1.000
  S57                     1930.40       0.00       0.00       0.00      17.57    1912.83    1930.40        9.98     5.47   1.000
  S58                     1930.40       0.00       0.00       0.00      17.57    1912.83    1930.40       12.82     7.03   1.000
  S59                     1930.40       0.00       0.00       0.00      17.57    1912.83    1930.40       12.45     6.83   1.000
  S60                     1930.40       0.00       0.00       0.00      14.86    1915.47    1930.34        7.59     4.16   1.000
  S61                     1930.40       0.00       0.00       0.00      14.86       0.00      14.86        0.05     0.03   0.008
  S62                     1930.40       0.00       0.00       0.00      14.86    1668.31    1683.17       90.20    54.85   0.872
  S63                     1930.40       0.00       0.00       0.00      14.86    1915.54    1930.40       18.15     9.95   1.000
  S64                     1930.40       0.00       0.00       0.00      14.86    1915.54    1930.40       49.13    26.94   1.000
  S65                     1930.40       0.00       0.00       0.00      14.86    1915.54    1930.40        7.84     4.30   1.000
  S66                     1930.40       0.00       0.00       0.00      14.86    1915.54    1930.40       12.64     6.93   1.000
  S67                     1930.40       0.00       0.00       0.00      14.86    1915.54    1930.40       23.63    12.96   1.000
  S68                     1930.40       0.00       0.00       0.00      14.86    1915.54    1930.40       27.70    15.19   1.000
  S69                     1930.40       0.00       0.00       0.00      14.86       0.00      14.86        0.37     0.20   0.008
  S70                     1930.40       0.00       0.00       0.00      14.86    1893.34    1908.21       49.94    27.69   0.989
  S71                     1930.40       0.00       0.00       0.00      17.57    1912.83    1930.40       28.40    15.57   1.000
  S72                     1930.40       0.00       0.00       0.00      14.86    1912.39    1927.25        9.56     5.25   0.998
  S73                     1930.40       0.00       0.00       0.00      14.86    1915.54    1930.40       40.46    22.19   1.000
  S74                     1930.40       0.00       0.00       0.00      14.86       0.00      14.86        0.10     0.05   0.008
  S75                     1930.40       0.00       0.00       0.00      14.86    1915.54    1930.40        1.29     0.71   1.000
  S76                     1930.40       0.00       0.00       0.00      14.86    1915.54    1930.40       25.50    13.98   1.000
  S77                     1930.40       0.00       0.00       0.00      14.86    1915.54    1930.40       20.64    11.31   1.000
  S78                     1930.40       0.00       0.00       0.00      14.86    1915.54    1930.40       14.96     8.20   1.000
  S79                     1930.40       0.00       0.00       0.00      17.57    1912.83    1930.40       13.11     7.19   1.000
  S80                     1930.40       0.00       0.00       0.00      14.86    1915.49    1930.35        5.33     2.92   1.000
  S81                     1930.40       0.00       0.00       0.00      14.86    1915.54    1930.40       21.83    11.97   1.000
  S82                     1930.40       0.00       0.00       0.00      14.86    1915.54    1930.40       21.31    11.69   1.000
  S83                     1930.40       0.00       0.00       0.00      14.86    1915.54    1930.40       13.71     7.52   1.000
  S84                     1930.40       0.00       0.00       0.00      17.57    1912.83    1930.40        8.96     4.91   1.000
  S85                     1930.40       0.00       0.00       0.00      17.57    1903.00    1920.57       23.74    13.08   0.995
  S86                     1930.40       0.00       0.00       0.00       0.00    1912.83    1912.83       22.13    12.13   0.991
  S87                     1930.40       0.00       0.00       0.00      17.57    1912.83    1930.40       23.98    13.15   1.000
  S88                     1930.40       0.00       0.00       0.00      17.57    1912.83    1930.40        4.32     2.37   1.000
  S89                     1930.40       0.00       0.00       0.00      17.57    1912.83    1930.40       19.52    10.70   1.000
  S90                     1930.40       0.00       0.00       0.00       0.00    1912.83    1912.83        9.39     5.15   0.991
  S91                     1930.40       0.00       0.00       0.00      17.57    1912.83    1930.40        3.19     1.75   1.000
  
  
  ******************
  Node Depth Summary
  ******************
  
  ---------------------------------------------------------------------------------
                                 Average  Maximum  Maximum  Time of Max    Reported
                                   Depth    Depth      HGL   Occurrence   Max Depth
  Node                 Type       Meters   Meters   Meters  days hr:min      Meters
  ---------------------------------------------------------------------------------
  J7                   JUNCTION     2.48     2.50     2.50     0  00:05        2.50
  J13                  JUNCTION     2.48     2.50     2.50     0  00:05        2.50
  J19                  JUNCTION     2.48     2.50     2.50     0  00:05        2.50
  J25                  JUNCTION     2.48     2.50     2.50     0  00:05        2.50
  J1                   JUNCTION     2.48     2.50     2.50     0  00:05        2.50
  J2                   JUNCTION     2.48     2.50     2.50     0  00:05        2.50
  J3                   JUNCTION     2.48     2.50     2.50     0  00:05        2.50
  J4                   JUNCTION     2.48     2.50     2.50     0  00:05        2.50
  J5                   JUNCTION     2.48     2.50     2.50     0  00:05        2.50
  J6                   JUNCTION     2.48     2.50     2.50     0  00:05        2.50
  J8                   JUNCTION     2.48     2.50     2.50     0  00:05        2.50
  J9                   JUNCTION     2.48     2.50     2.50     0  00:05        2.50
  J10                  JUNCTION     2.48     2.50     2.50     0  00:05        2.50
  J11                  JUNCTION     2.48     2.50     2.50     0  00:05        2.50
  J12                  JUNCTION     2.48     2.50     2.50     0  00:05        2.50
  J14                  JUNCTION     2.48     2.50     2.50     0  00:05        2.50
  J15                  JUNCTION     2.48     2.50     2.50     0  00:05        2.50
  J16                  JUNCTION     2.48     2.50     2.50     0  00:05        2.50
  J17                  JUNCTION     2.48     2.50     2.50     0  00:05        2.50
  J18                  JUNCTION     2.48     2.50     2.50     0  00:05        2.50
  J20                  JUNCTION     2.48     2.50     2.50     0  00:05        2.50
  J21                  JUNCTION     2.48     2.50     2.50     0  00:05        2.50
  J22                  JUNCTION     2.48     2.50     2.50     0  00:05        2.50
  J23                  JUNCTION     2.48     2.50     2.50     0  00:05        2.50
  J24                  JUNCTION     2.48     2.50     2.50     0  00:05        2.50
  J26                  JUNCTION     2.48     2.50     2.50     0  00:05        2.50
  J27                  JUNCTION     2.48     2.50     2.50     0  00:05        2.50
  J29                  JUNCTION     2.48     2.50     2.50     0  00:05        2.50
  J30                  JUNCTION     2.48     2.50     2.50     0  00:05        2.50
  J31                  JUNCTION     2.48     2.50     2.50     0  00:05        2.50
  J33                  JUNCTION     2.48     2.50     2.50     0  00:05        2.50
  J32                  JUNCTION     2.48     2.50     2.50     0  00:05        2.50
  J28                  JUNCTION     2.48     2.50     2.50     0  00:05        2.50
  OF                   OUTFALL      1.36     1.42     1.42     0  00:05        1.37
  
  
  *******************
  Node Inflow Summary
  *******************
  
  -------------------------------------------------------------------------------------------------
                                  Maximum  Maximum                  Lateral       Total        Flow
                                  Lateral    Total  Time of Max      Inflow      Inflow     Balance
                                   Inflow   Inflow   Occurrence      Volume      Volume       Error
  Node                 Type           CMS      CMS  days hr:min    10^6 ltr    10^6 ltr     Percent
  -------------------------------------------------------------------------------------------------
  J7                   JUNCTION    72.271   72.271     0  00:40         111         111       3.077
  J13                  JUNCTION     6.038    6.038     0  00:40        10.1        10.1       4.591
  J19                  JUNCTION   286.169  286.169     0  00:40         478         478       4.485
  J25                  JUNCTION    35.465   35.572     0  00:40        54.9        55.2       2.360
  J1                   JUNCTION    24.021   24.021     0  00:35        40.2        40.2       4.634
  J2                   JUNCTION    18.047   18.047     0  00:40        30.2        30.2       3.850
  J3                   JUNCTION     0.804   32.713     0  00:05        1.35        10.8      27.697
  J4                   JUNCTION    52.256   52.256     0  00:40        87.4        87.4       2.598
  J5                   JUNCTION    43.206   43.206     0  00:35        72.3        72.3       3.454
  J6                   JUNCTION    18.904   18.904     0  00:40        31.6        31.6       4.633
  J8                   JUNCTION    29.086   29.086     0  00:35        48.6        48.6       4.634
  J9                   JUNCTION    13.080   13.080     0  00:40        21.8        21.8       4.031
  J10                  JUNCTION    19.518   19.518     0  00:35        32.6        32.6       4.484
  J11                  JUNCTION    20.969   21.130     0  00:35        35.1        35.5       3.473
  J12                  JUNCTION    22.185   22.185     0  00:35        37.1        37.1       3.498
  J14                  JUNCTION    18.798   18.798     0  00:40        31.4        31.4       4.634
  J15                  JUNCTION    26.901   26.901     0  00:40        44.8        44.8       4.433
  J16                  JUNCTION    15.570   16.181     0  00:05          26        27.8       3.863
  J17                  JUNCTION     0.203   14.855     0  00:05       0.339        7.03      17.893
  J18                  JUNCTION     0.709   11.730     0  00:05        1.19        5.61      16.619
  J20                  JUNCTION    52.559   52.559     0  00:40        87.2        87.2       4.473
  J21                  JUNCTION    17.351   17.351     0  00:40          29          29       4.634
  J22                  JUNCTION    35.621   35.621     0  00:40          59          59       4.285
  J23                  JUNCTION    18.691   18.937     0  00:40        31.2        32.1       3.276
  J24                  JUNCTION     2.464    2.464     0  00:40        4.12        4.12       4.152
  J26                  JUNCTION    15.326   15.326     0  00:35        25.6        25.6       4.634
  J27                  JUNCTION    13.442   15.459     0  00:05        22.5        24.6       3.659
  J29                  JUNCTION    22.048   22.307     0  00:35        36.9        37.8       3.121
  J30                  JUNCTION     0.000   28.980     0  00:05           0         9.2      29.109
  J31                  JUNCTION    65.635   65.635     0  00:40        99.3        99.3       1.940
  J33                  JUNCTION    21.693   21.693     0  00:40        36.3        36.3       4.632
  J32                  JUNCTION     9.897    9.897     0  00:35        16.6        16.6       4.496
  J28                  JUNCTION    15.824   17.480     0  00:05        26.5        28.5       3.772
  OF                   OUTFALL      0.000    7.984     0  00:05           0        16.6       0.000
  
  
  **********************
  Node Surcharge Summary
  **********************
  
  Surcharging occurs when water rises above the top of the highest conduit.
  ---------------------------------------------------------------------
                                               Max. Height   Min. Depth
                                   Hours       Above Crown    Below Rim
  Node                 Type      Surcharged         Meters       Meters
  ---------------------------------------------------------------------
  J7                   JUNCTION        0.67          0.850        0.000
  J13                  JUNCTION        0.67          0.850        0.000
  J19                  JUNCTION        0.67          0.850        0.000
  J25                  JUNCTION        0.67          0.850        0.000
  J1                   JUNCTION        0.67          0.850        0.000
  J2                   JUNCTION        0.67          0.850        0.000
  J3                   JUNCTION        0.67          0.850        0.000
  J4                   JUNCTION        0.67          0.850        0.000
  J5                   JUNCTION        0.67          0.850        0.000
  J6                   JUNCTION        0.67          0.850        0.000
  J8                   JUNCTION        0.67          0.850        0.000
  J9                   JUNCTION        0.67          0.850        0.000
  J10                  JUNCTION        0.67          0.850        0.000
  J11                  JUNCTION        0.67          0.850        0.000
  J12                  JUNCTION        0.67          0.850        0.000
  J14                  JUNCTION        0.67          0.850        0.000
  J15                  JUNCTION        0.67          0.850        0.000
  J16                  JUNCTION        0.67          0.850        0.000
  J17                  JUNCTION        0.67          0.850        0.000
  J18                  JUNCTION        0.67          0.850        0.000
  J20                  JUNCTION        0.67          0.850        0.000
  J21                  JUNCTION        0.67          0.850        0.000
  J22                  JUNCTION        0.67          0.850        0.000
  J23                  JUNCTION        0.67          0.850        0.000
  J24                  JUNCTION        0.67          0.850        0.000
  J26                  JUNCTION        0.67          0.850        0.000
  J27                  JUNCTION        0.67          0.850        0.000
  J29                  JUNCTION        0.67          0.850        0.000
  J30                  JUNCTION        0.67          0.850        0.000
  J31                  JUNCTION        0.67          0.850        0.000
  J33                  JUNCTION        0.67          0.850        0.000
  J32                  JUNCTION        0.67          0.850        0.000
  J28                  JUNCTION        0.67          0.850        0.000
  
  
  *********************
  Node Flooding Summary
  *********************
  
  Flooding refers to all water that overflows a node, whether it ponds or not.
  --------------------------------------------------------------------------
                                                             Total   Maximum
                                 Maximum   Time of Max       Flood    Ponded
                        Hours       Rate    Occurrence      Volume     Depth
  Node                 Flooded       CMS   days hr:min    10^6 ltr    Meters
  --------------------------------------------------------------------------
  J7                      0.67    72.156      0  00:40     110.531     0.000
  J13                     0.67     6.038      0  00:40      10.083     0.000
  J19                     0.67   278.816      0  00:40     461.824     0.000
  J25                     0.67    35.225      0  00:40      52.613     0.000
  J1                      0.67    24.021      0  00:35      40.176     0.000
  J2                      0.67    17.709      0  00:40      27.983     0.000
  J3                      0.67    27.916      0  00:05      10.818     0.000
  J4                      0.67    51.941      0  00:40      81.432     0.000
  J5                      0.67    42.956      0  00:40      68.769     0.000
  J6                      0.67    18.904      0  00:40      31.617     0.000
  J8                      0.67    29.086      0  00:35      48.647     0.000
  J9                      0.67    12.912      0  00:40      20.735     0.000
  J10                     0.67    19.309      0  00:40      31.855     0.000
  J11                     0.67    20.939      0  00:40      33.337     0.000
  J12                     0.67    21.979      0  00:40      34.867     0.000
  J14                     0.67    18.798      0  00:40      31.440     0.000
  J15                     0.67    26.756      0  00:40      44.159     0.000
  J16                     0.67    15.824      0  00:35      26.192     0.000
  J17                     0.67    13.913      0  00:05       7.029     0.000
  J18                     0.67    10.307      0  00:05       4.947     0.000
  J20                     0.67    52.551      0  00:40      87.234     0.000
  J21                     0.67    17.351      0  00:40      29.020     0.000
  J22                     0.67    35.340      0  00:40      57.837     0.000
  J23                     0.67    18.751      0  00:40      29.926     0.000
  J24                     0.67     2.358      0  00:40       3.755     0.000
  J26                     0.67    15.326      0  00:35      25.634     0.000
  J27                     0.67    13.608      0  00:35      22.598     0.000
  J29                     0.67    21.936      0  00:40      34.413     0.000
  J30                     0.67    25.662      0  00:05       9.198     0.000
  J31                     0.67    65.327      0  00:40      95.814     0.000
  J33                     0.67    21.693      0  00:40      36.281     0.000
  J32                     0.67     9.783      0  00:40      16.149     0.000
  J28                     0.67    15.989      0  00:35      26.525     0.000
  
  
  ***********************
  Outfall Loading Summary
  ***********************
  
  -----------------------------------------------------------
                         Flow       Avg       Max       Total
                         Freq      Flow      Flow      Volume
  Outfall Node           Pcnt       CMS       CMS    10^6 ltr
  -----------------------------------------------------------
  OF                   100.00     7.312     7.984      16.644
  -----------------------------------------------------------
  System               100.00     7.312     7.984      16.644
  
  
  ********************
  Link Flow Summary
  ********************
  
  -----------------------------------------------------------------------------
                                 Maximum  Time of Max   Maximum    Max/    Max/
                                  |Flow|   Occurrence   |Veloc|    Full    Full
  Link                 Type          CMS  days hr:min     m/sec    Flow   Depth
  -----------------------------------------------------------------------------
  P1                   PUMP        0.000     0  00:00                          
  C23                  CONDUIT     0.000     0  00:00      0.00    0.00    1.00
  C24                  CONDUIT     0.493     0  00:05      0.23    4.27    1.00
  C25                  CONDUIT     0.000     0  00:00      0.00    0.00    1.00
  C26                  CONDUIT     0.115     0  00:05      0.05    0.90    1.00
  C27                  CONDUIT     0.000     0  00:00      0.00    0.00    1.00
  C28                  CONDUIT     1.299     0  00:05      0.61    8.95    1.00
  C29                  CONDUIT     0.000     0  00:00      0.00    0.00    1.00
  C30                  CONDUIT     0.000     0  00:00      0.00    0.00    1.00
  C31                  CONDUIT     0.092     0  00:05      0.04    0.80    1.00
  C32                  CONDUIT     4.526     0  00:05      2.12   29.25    1.00
  C33                  CONDUIT    22.810     0  00:05     10.67  133.46    1.00
  C34                  CONDUIT     0.000     0  00:00      0.00    0.00    1.00
  C35                  CONDUIT     0.000     0  00:05      0.00    0.00    1.00
  C36                  CONDUIT     0.000     0  00:05      0.00    0.00    1.00
  C37                  CONDUIT     1.307     0  00:05      0.61    8.97    1.00
  C38                  CONDUIT     1.710     0  00:05      0.80   11.92    1.00
  C39                  CONDUIT     4.622     0  00:05      2.16   29.29    1.00
  C40                  CONDUIT     0.000     0  00:00      0.00    0.00    1.00
  C41                  CONDUIT     0.000     0  00:00      0.00    0.00    1.00
  C43                  CONDUIT     0.000     0  00:00      0.00    0.00    1.00
  C44                  CONDUIT     0.359     0  00:05      0.17    3.07    1.00
  C45                  CONDUIT    10.912     0  00:05      5.10   93.63    1.00
  C46                  CONDUIT    11.699     0  00:05      5.47   96.95    1.00
  C48                  CONDUIT     0.000     0  00:05      0.00    0.00    1.00
  C42                  CONDUIT     6.369     0  00:05      2.98   50.50    1.00
  C50                  CONDUIT     0.281     0  00:05      0.13    2.71    1.00
  C49                  CONDUIT     1.127     0  00:05      0.53    9.83    1.00
  C01                  CONDUIT     0.000     0  00:00      0.00    0.00    1.00
  C02                  CONDUIT     0.000     0  00:00      0.00    0.00    1.00
  C03                  CONDUIT     0.495     0  00:05      0.23    3.95    1.00
  C04                  CONDUIT     0.259     0  00:05      0.12    2.03    1.00
  C05                  CONDUIT     0.245     0  00:05      0.11    1.95    1.00
  C06                  CONDUIT     0.000     0  00:00      0.00    0.00    1.00
  C07                  CONDUIT     0.000     0  00:00      0.00    0.00    1.00
  C08                  CONDUIT     0.000     0  00:00      0.00    0.00    1.00
  C09                  CONDUIT     0.484     0  00:05      0.23    4.24    1.00
  C10                  CONDUIT     0.569     0  00:05      0.27    4.54    1.00
  C11                  CONDUIT     0.000     0  00:00      0.00    0.00    1.00
  C12                  CONDUIT     5.537     0  00:05      2.59   47.70    1.00
  C13                  CONDUIT     5.655     0  00:05      2.64   49.21    1.00
  C14                  CONDUIT     3.220     0  00:05      1.51   25.58    1.00
  C15                  CONDUIT     0.615     0  00:05      0.29    4.88    1.00
  C16                  CONDUIT     0.000     0  00:00      0.00    0.00    1.00
  C17                  CONDUIT     5.293     0  00:05      2.48   46.71    1.00
  C18                  CONDUIT     0.000     0  00:00      0.00    0.00    1.00
  C19                  CONDUIT     0.000     0  00:00      0.00    0.00    1.00
  C20                  CONDUIT     5.409     0  00:05      2.53   48.16    1.00
  C21                  CONDUIT     0.000     0  00:05      0.00    0.00    1.00
  C22                  CONDUIT     0.024     0  00:05      0.01    0.19    1.00
  C47                  CONDUIT     0.000     0  00:00      0.00    0.00    1.00
  Cout                 CONDUIT     7.984     0  00:05      3.85   63.04    0.93
  
  
  ***************************
  Flow Classification Summary
  ***************************
  
  -------------------------------------------------------------------------------------
                      Adjusted    ---------- Fraction of Time in Flow Class ---------- 
                       /Actual         Up    Down  Sub   Sup   Up    Down  Norm  Inlet 
  Conduit               Length    Dry  Dry   Dry   Crit  Crit  Crit  Crit  Ltd   Ctrl  
  -------------------------------------------------------------------------------------
  C23                     1.00   0.00  0.00  0.00  1.00  0.00  0.00  0.00  0.00  0.00
  C24                     1.00   0.00  0.00  0.00  1.00  0.00  0.00  0.00  0.00  0.00
  C25                     1.00   0.00  0.00  0.00  1.00  0.00  0.00  0.00  0.00  0.00
  C26                     1.00   0.00  0.00  0.00  1.00  0.00  0.00  0.00  0.00  0.00
  C27                     1.00   0.00  0.00  0.00  1.00  0.00  0.00  0.00  0.00  0.00
  C28                     1.00   0.00  0.00  0.00  1.00  0.00  0.00  0.00  0.00  0.00
  C29                     1.00   0.00  0.00  0.00  1.00  0.00  0.00  0.00  0.00  0.00
  C30                     1.00   0.00  0.00  0.00  1.00  0.00  0.00  0.00  0.00  0.00
  C31                     1.00   0.00  0.00  0.00  1.00  0.00  0.00  0.00  0.00  0.00
  C32                     1.00   0.00  0.00  0.00  1.00  0.00  0.00  0.00  0.00  0.00
  C33                     1.00   0.00  0.00  0.00  1.00  0.00  0.00  0.00  0.00  0.00
  C34                     1.00   0.00  0.00  0.00  1.00  0.00  0.00  0.00  0.00  0.00
  C35                     1.00   0.00  0.00  0.00  1.00  0.00  0.00  0.00  0.00  0.00
  C36                     1.00   0.00  0.00  0.00  1.00  0.00  0.00  0.00  0.00  0.00
  C37                     1.00   0.00  0.00  0.00  1.00  0.00  0.00  0.00  0.00  0.00
  C38                     1.00   0.00  0.00  0.00  1.00  0.00  0.00  0.00  0.00  0.00
  C39                     1.00   0.00  0.00  0.00  1.00  0.00  0.00  0.00  0.00  0.00
  C40                     1.00   0.00  0.00  0.00  1.00  0.00  0.00  0.00  0.00  0.00
  C41                     1.00   0.00  0.00  0.00  1.00  0.00  0.00  0.00  0.00  0.00
  C43                     1.00   0.00  0.00  0.00  1.00  0.00  0.00  0.00  0.00  0.00
  C44                     1.00   0.00  0.00  0.00  1.00  0.00  0.00  0.00  0.00  0.00
  C45                     1.00   0.00  0.00  0.00  1.00  0.00  0.00  0.00  0.00  0.00
  C46                     1.00   0.00  0.00  0.00  1.00  0.00  0.00  0.00  0.00  0.00
  C48                     1.00   0.00  0.00  0.00  1.00  0.00  0.00  0.00  0.00  0.00
  C42                     1.00   0.00  0.00  0.00  1.00  0.00  0.00  0.00  0.00  0.00
  C50                     1.00   0.00  0.00  0.00  1.00  0.00  0.00  0.00  0.00  0.00
  C49                     1.00   0.00  0.00  0.00  1.00  0.00  0.00  0.00  0.00  0.00
  C01                     1.00   0.00  0.00  0.00  1.00  0.00  0.00  0.00  0.00  0.00
  C02                     1.00   0.00  0.00  0.00  1.00  0.00  0.00  0.00  0.00  0.00
  C03                     1.00   0.00  0.00  0.00  1.00  0.00  0.00  0.00  0.00  0.00
  C04                     1.00   0.00  0.00  0.00  1.00  0.00  0.00  0.00  0.00  0.00
  C05                     1.00   0.00  0.00  0.00  1.00  0.00  0.00  0.00  0.00  0.00
  C06                     1.00   0.00  0.00  0.00  1.00  0.00  0.00  0.00  0.00  0.00
  C07                     1.00   0.00  0.00  0.00  1.00  0.00  0.00  0.00  0.00  0.00
  C08                     1.00   0.00  0.00  0.00  1.00  0.00  0.00  0.00  0.00  0.00
  C09                     1.00   0.00  0.00  0.00  1.00  0.00  0.00  0.00  0.00  0.00
  C10                     1.00   0.00  0.00  0.00  1.00  0.00  0.00  0.00  0.00  0.00
  C11                     1.00   0.00  0.00  0.00  1.00  0.00  0.00  0.00  0.00  0.00
  C12                     1.00   0.00  0.00  0.00  1.00  0.00  0.00  0.00  0.00  0.00
  C13                     1.00   0.00  0.00  0.00  1.00  0.00  0.00  0.00  0.00  0.00
  C14                     1.00   0.00  0.00  0.00  1.00  0.00  0.00  0.00  0.00  0.00
  C15                     1.00   0.00  0.00  0.00  1.00  0.00  0.00  0.00  0.00  0.00
  C16                     1.00   0.00  0.00  0.00  1.00  0.00  0.00  0.00  0.00  0.00
  C17                     1.00   0.00  0.00  0.00  1.00  0.00  0.00  0.00  0.00  0.00
  C18                     1.00   0.00  0.00  0.00  1.00  0.00  0.00  0.00  0.00  0.00
  C19                     1.00   0.00  0.00  0.00  1.00  0.00  0.00  0.00  0.00  0.00
  C20                     1.00   0.00  0.00  0.00  1.00  0.00  0.00  0.00  0.00  0.00
  C21                     1.00   0.00  0.00  0.00  1.00  0.00  0.00  0.00  0.00  0.00
  C22                     1.00   0.00  0.00  0.00  1.00  0.00  0.00  0.00  0.00  0.00
  C47                     1.00   0.00  0.00  0.00  1.00  0.00  0.00  0.00  0.00  0.00
  Cout                    1.00   0.00  0.00  0.00  1.00  0.00  0.00  0.00  0.00  0.00
  
  
  *************************
  Conduit Surcharge Summary
  *************************
  
  ----------------------------------------------------------------------------
                                                           Hours        Hours 
                         --------- Hours Full --------   Above Full   Capacity
  Conduit                Both Ends  Upstream  Dnstream   Normal Flow   Limited
  ----------------------------------------------------------------------------
  C23                         0.67      0.67      0.67      0.01         0.01
  C24                         0.67      0.67      0.67      0.67         0.01
  C25                         0.67      0.67      0.67      0.01         0.01
  C26                         0.67      0.67      0.67      0.01         0.01
  C27                         0.67      0.67      0.67      0.01         0.01
  C28                         0.67      0.67      0.67      0.67         0.01
  C29                         0.67      0.67      0.67      0.01         0.01
  C30                         0.67      0.67      0.67      0.01         0.01
  C31                         0.67      0.67      0.67      0.01         0.01
  C32                         0.67      0.67      0.67      0.67         0.01
  C33                         0.67      0.67      0.67      0.67         0.01
  C34                         0.67      0.67      0.67      0.01         0.01
  C35                         0.67      0.67      0.67      0.01         0.01
  C36                         0.67      0.67      0.67      0.01         0.01
  C37                         0.67      0.67      0.67      0.67         0.01
  C38                         0.67      0.67      0.67      0.67         0.01
  C39                         0.67      0.67      0.67      0.67         0.01
  C40                         0.67      0.67      0.67      0.01         0.01
  C41                         0.67      0.67      0.67      0.01         0.01
  C43                         0.67      0.67      0.67      0.01         0.01
  C44                         0.67      0.67      0.67      0.67         0.01
  C45                         0.67      0.67      0.67      0.67         0.01
  C46                         0.67      0.67      0.67      0.67         0.01
  C48                         0.67      0.67      0.67      0.01         0.01
  C42                         0.67      0.67      0.67      0.67         0.01
  C50                         0.67      0.67      0.67      0.67         0.01
  C49                         0.67      0.67      0.67      0.67         0.01
  C01                         0.67      0.67      0.67      0.01         0.01
  C02                         0.67      0.67      0.67      0.01         0.01
  C03                         0.67      0.67      0.67      0.67         0.01
  C04                         0.67      0.67      0.67      0.52         0.01
  C05                         0.67      0.67      0.67      0.51         0.01
  C06                         0.67      0.67      0.67      0.01         0.01
  C07                         0.67      0.67      0.67      0.01         0.01
  C08                         0.67      0.67      0.67      0.01         0.01
  C09                         0.67      0.67      0.67      0.67         0.01
  C10                         0.67      0.67      0.67      0.67         0.01
  C11                         0.67      0.67      0.67      0.01         0.01
  C12                         0.67      0.67      0.67      0.67         0.01
  C13                         0.67      0.67      0.67      0.67         0.01
  C14                         0.67      0.67      0.67      0.67         0.01
  C15                         0.67      0.67      0.67      0.67         0.01
  C16                         0.67      0.67      0.67      0.01         0.01
  C17                         0.67      0.67      0.67      0.67         0.01
  C18                         0.67      0.67      0.67      0.01         0.01
  C19                         0.67      0.67      0.67      0.01         0.01
  C20                         0.67      0.67      0.67      0.67         0.01
  C21                         0.67      0.67      0.67      0.01         0.01
  C22                         0.67      0.67      0.67      0.01         0.01
  C47                         0.67      0.67      0.67      0.01         0.01
  Cout                        0.01      0.67      0.01      0.67         0.01
  
  
  ***************
  Pumping Summary
  ***************
  
  ---------------------------------------------------------------------------------------------------------
                                                  Min       Avg       Max     Total     Power    % Time Off
                        Percent   Number of      Flow      Flow      Flow    Volume     Usage    Pump Curve
  Pump                 Utilized   Start-Ups       CMS       CMS       CMS  10^6 ltr     Kw-hr    Low   High
  ---------------------------------------------------------------------------------------------------------
  P1                       0.00           0      0.00      0.00      0.00     0.000      0.00    0.0    0.0
  

  Analysis begun on:  Mon Dec  2 16:53:47 2024
  Analysis ended on:  Mon Dec  2 16:53:47 2024
  Total elapsed time: < 1 sec