
  EPA STORM WATER MANAGEMENT MODEL - VERSION 5.2 (Build 5.2.4)
  PYSWMM TOOLKIT API - VERSION v1.0 (2023-11-27)
  ------------------------------------------------------------

  WARNING 04: minimum elevation drop used for Conduit C23
  WARNING 04: minimum elevation drop used for Conduit C24
  WARNING 04: minimum elevation drop used for Conduit C25
  WARNING 04: minimum elevation drop used for Conduit C26
  WARNING 04: minimum elevation drop used for Conduit C27
  WARNING 04: minimum elevation drop used for Conduit C28
  WARNING 04: minimum elevation drop used for Conduit C29
  WARNING 04: minimum elevation drop used for Conduit C30
  WARNING 04: minimum elevation drop used for Conduit C31
  WARNING 04: minimum elevation drop used for Conduit C32
  WARNING 04: minimum elevation drop used for Conduit C33
  WARNING 04: minimum elevation drop used for Conduit C34
  WARNING 04: minimum elevation drop used for Conduit C35
  WARNING 04: minimum elevation drop used for Conduit C36
  WARNING 04: minimum elevation drop used for Conduit C37
  WARNING 04: minimum elevation drop used for Conduit C38
  WARNING 04: minimum elevation drop used for Conduit C39
  WARNING 04: minimum elevation drop used for Conduit C40
  WARNING 04: minimum elevation drop used for Conduit C41
  WARNING 04: minimum elevation drop used for Conduit C43
  WARNING 04: minimum elevation drop used for Conduit C44
  WARNING 04: minimum elevation drop used for Conduit C45
  WARNING 04: minimum elevation drop used for Conduit C46
  WARNING 04: minimum elevation drop used for Conduit C48
  WARNING 04: minimum elevation drop used for Conduit C42
  WARNING 04: minimum elevation drop used for Conduit C50
  WARNING 04: minimum elevation drop used for Conduit C49
  WARNING 04: minimum elevation drop used for Conduit C01
  WARNING 04: minimum elevation drop used for Conduit C02
  WARNING 04: minimum elevation drop used for Conduit C03
  WARNING 04: minimum elevation drop used for Conduit C04
  WARNING 04: minimum elevation drop used for Conduit C05
  WARNING 04: minimum elevation drop used for Conduit C06
  WARNING 04: minimum elevation drop used for Conduit C07
  WARNING 04: minimum elevation drop used for Conduit C08
  WARNING 04: minimum elevation drop used for Conduit C09
  WARNING 04: minimum elevation drop used for Conduit C10
  WARNING 04: minimum elevation drop used for Conduit C11
  WARNING 04: minimum elevation drop used for Conduit C12
  WARNING 04: minimum elevation drop used for Conduit C13
  WARNING 04: minimum elevation drop used for Conduit C14
  WARNING 04: minimum elevation drop used for Conduit C15
  WARNING 04: minimum elevation drop used for Conduit C16
  WARNING 04: minimum elevation drop used for Conduit C17
  WARNING 04: minimum elevation drop used for Conduit C18
  WARNING 04: minimum elevation drop used for Conduit C19
  WARNING 04: minimum elevation drop used for Conduit C20
  WARNING 04: minimum elevation drop used for Conduit C21
  WARNING 04: minimum elevation drop used for Conduit C22
  WARNING 04: minimum elevation drop used for Conduit C47
  WARNING 04: minimum elevation drop used for Conduit Cout
  
  ****************
  Analysis Options
  ****************
  Flow Units ............... CMS
  Process Models:
    Rainfall/Runoff ........ YES
    RDII ................... NO
    Snowmelt ............... NO
    Groundwater ............ NO
    Flow Routing ........... YES
    Ponding Allowed ........ NO
    Water Quality .......... NO
  Infiltration Method ...... HORTON
  Flow Routing Method ...... DYNWAVE
  Surcharge Method ......... EXTRAN
  Starting Date ............ 03/27/2023 12:00:00
  Ending Date .............. 03/27/2023 12:50:00
  Antecedent Dry Days ...... 0.0
  Report Time Step ......... 00:10:00
  Wet Time Step ............ 00:05:00
  Dry Time Step ............ 01:00:00
  Routing Time Step ........ 300.00 sec
  Variable Time Step ....... YES
  Maximum Trials ........... 8
  Number of Threads ........ 1
  Head Tolerance ........... 0.001524 m
  
  
  *********************
  Rainfall File Summary
  *********************
  Station    First        Last         Recording   Periods    Periods    Periods
  ID         Date         Date         Frequency  w/Precip    Missing    Malfunc.
  -------------------------------------------------------------------------------
  331        03/27/2023   03/27/2023      10 min         6          0          0

  
  
  **************************        Volume         Depth
  Runoff Quantity Continuity     hectare-m            mm
  **************************     ---------       -------
  Total Precipitation ......       198.044      1980.523
  Evaporation Loss .........         0.000         0.000
  Infiltration Loss ........         0.000         0.000
  Surface Runoff ...........       187.747      1877.542
  Final Storage ............        12.937       129.371
  Continuity Error (%) .....        -1.333
  
  
  **************************        Volume        Volume
  Flow Routing Continuity        hectare-m      10^6 ltr
  **************************     ---------     ---------
  Dry Weather Inflow .......         0.000         0.000
  Wet Weather Inflow .......       177.933      1779.353
  Groundwater Inflow .......         0.000         0.000
  RDII Inflow ..............         0.000         0.000
  External Inflow ..........         0.000         0.000
  External Outflow .........         2.105        21.046
  Flooding Loss ............       170.711      1707.125
  Evaporation Loss .........         0.000         0.000
  Exfiltration Loss ........         0.000         0.000
  Initial Stored Volume ....         0.046         0.463
  Final Stored Volume ......         1.883        18.831
  Continuity Error (%) .....         1.844
  
  
  *************************
  Highest Continuity Errors
  *************************
  Node J30 (18.91%)
  Node J3 (17.09%)
  Node J17 (12.87%)
  Node J18 (11.47%)
  Node J24 (5.38%)
  
  
  ***************************
  Time-Step Critical Elements
  ***************************
  Link Cout (98.98%)
  
  
  ********************************
  Highest Flow Instability Indexes
  ********************************
  Link C24 (2)
  Link C31 (2)
  Link C33 (2)
  Link C34 (2)
  Link C46 (2)
  
  
  *********************************
  Most Frequent Nonconverging Nodes
  *********************************
  Convergence obtained at all time steps.
  
  
  *************************
  Routing Time Step Summary
  *************************
  Minimum Time Step           :     4.82 sec
  Average Time Step           :    15.30 sec
  Maximum Time Step           :   300.00 sec
  % of Time in Steady State   :     0.00
  Average Iterations per Step :     2.02
  % of Steps Not Converging   :     0.00
  Time Step Frequencies       :
     300.000 - 83.462 sec      :     0.51 %
     83.462 - 23.220 sec      :     0.00 %
     23.220 -  6.460 sec      :    98.46 %
      6.460 -  1.797 sec      :     1.03 %
      1.797 -  0.500 sec      :     0.00 %
  
  
  ***************************
  Subcatchment Runoff Summary
  ***************************
  
  ------------------------------------------------------------------------------------------------------------------------------
                            Total      Total      Total      Total     Imperv       Perv      Total       Total     Peak  Runoff
                           Precip      Runon       Evap      Infil     Runoff     Runoff     Runoff      Runoff   Runoff   Coeff
  Subcatchment                 mm         mm         mm         mm         mm         mm         mm    10^6 ltr      CMS
  ------------------------------------------------------------------------------------------------------------------------------
  S1                      1980.52       0.00       0.00       0.00      19.61    1960.92    1980.52      499.61   192.24   1.000
  S2                      1980.52       0.00       0.00       0.00      18.02    1962.09    1980.11       15.39     5.92   1.000
  S3                      1980.52       0.00       0.00       0.00      18.02    1962.50    1980.52        4.10     1.58   1.000
  S4                      1980.52       0.00       0.00       0.00      18.02    1962.50    1980.52        4.06     1.56   1.000
  S5                      1980.52       0.00       0.00       0.00      18.02    1962.50    1980.52        5.92     2.28   1.000
  S6                      1980.52       0.00       0.00       0.00      18.02    1962.50    1980.52       16.32     6.28   1.000
  S7                      1980.52       0.00       0.00       0.00      18.02    1962.50    1980.52        3.07     1.18   1.000
  S8                      1980.52       0.00       0.00       0.00      18.02    1962.50    1980.52        9.65     3.71   1.000
  S9                      1980.52       0.00       0.00       0.00      18.02    1962.50    1980.52       11.92     4.59   1.000
  S10                     1980.52       0.00       0.00       0.00       0.00    1962.50    1962.50        2.77     1.06   0.991
  S11                     1980.52       0.00       0.00       0.00      18.02    1915.83    1933.85       28.29    10.95   0.976
  S12                     1980.52       0.00       0.00       0.00      18.02    1962.50    1980.52       17.19     6.61   1.000
  S13                     1980.52       0.00       0.00       0.00       0.00    1962.50    1962.50       16.56     6.37   0.991
  S14                     1980.52       0.00       0.00       0.00      16.64    1963.89    1980.52       15.90     6.12   1.000
  S15                     1980.52       0.00       0.00       0.00      16.64    1963.89    1980.52       14.85     5.72   1.000
  S16                     1980.52       0.00       0.00       0.00      15.25    1958.95    1974.20       34.86    13.45   0.997
  S17                     1980.52       0.00       0.00       0.00      15.25    1829.79    1845.04       62.82    25.05   0.932
  S18                     1980.52       0.00       0.00       0.00      15.25    1965.26    1980.51        2.55     0.98   1.000
  S19                     1980.52       0.00       0.00       0.00      15.25       0.00      15.25        0.04     0.01   0.008
  S20                     1980.52       0.00       0.00       0.00      15.25    1965.29    1980.54        2.02     0.78   1.000
  S21                     1980.52       0.00       0.00       0.00      15.25    1942.95    1958.20       32.47    12.58   0.989
  S22                     1980.52       0.00       0.00       0.00      15.25    1965.22    1980.47        0.65     0.25   1.000
  S23                     1980.52       0.00       0.00       0.00      15.25    1965.27    1980.52        0.77     0.30   1.000
  S24                     1980.52       0.00       0.00       0.00      15.25    1965.27    1980.52        0.97     0.37   1.000
  S25                     1980.52       0.00       0.00       0.00      15.25    1965.27    1980.52        1.17     0.45   1.000
  S26                     1980.52       0.00       0.00       0.00      15.25    1965.27    1980.52        1.37     0.53   1.000
  S27                     1980.52       0.00       0.00       0.00      15.25    1965.27    1980.52       16.46     6.33   1.000
  S28                     1980.52       0.00       0.00       0.00      15.25    1946.10    1961.35       17.42     6.75   0.990
  S29                     1980.52       0.00       0.00       0.00      15.25    1965.23    1980.48        1.82     0.70   1.000
  S30                     1980.52       0.00       0.00       0.00      15.25    1786.67    1801.92      114.78    46.63   0.910
  S31                     1980.52       0.00       0.00       0.00      15.84    1964.68    1980.52       26.84    10.33   1.000
  S32                     1980.52       0.00       0.00       0.00      15.84    1964.68    1980.52        8.26     3.18   1.000
  S33                     1980.52       0.00       0.00       0.00      18.62    1961.91    1980.52        6.16     2.37   1.000
  S34                     1980.52       0.00       0.00       0.00      18.62    1961.91    1980.52        6.52     2.51   1.000
  S35                     1980.52       0.00       0.00       0.00      18.02    1962.50    1980.52        7.96     3.06   1.000
  S36                     1980.52       0.00       0.00       0.00      18.02    1962.50    1980.52        3.27     1.26   1.000
  S37                     1980.52       0.00       0.00       0.00      18.02    1962.50    1980.52        7.13     2.74   1.000
  S38                     1980.52       0.00       0.00       0.00      18.02    1962.50    1980.52        0.32     0.12   1.000
  S39                     1980.52       0.00       0.00       0.00      18.02    1962.50    1980.52        8.12     3.12   1.000
  S40                     1980.52       0.00       0.00       0.00      18.02    1962.50    1980.52        2.79     1.07   1.000
  S41                     1980.52       0.00       0.00       0.00      18.02    1962.50    1980.52        4.50     1.73   1.000
  S42                     1980.52       0.00       0.00       0.00      18.02    1962.50    1980.52        6.26     2.41   1.000
  S43                     1980.52       0.00       0.00       0.00      18.02    1962.50    1980.52       14.26     5.49   1.000
  S44                     1980.52       0.00       0.00       0.00      18.02    1962.50    1980.52       10.34     3.98   1.000
  S45                     1980.52       0.00       0.00       0.00      18.02    1962.50    1980.52        1.05     0.40   1.000
  S46                     1980.52       0.00       0.00       0.00      18.02    1962.50    1980.52        9.59     3.69   1.000
  S47                     1980.52       0.00       0.00       0.00      18.02    1962.50    1980.52       19.37     7.45   1.000
  S48                     1980.52       0.00       0.00       0.00      18.02    1962.50    1980.52       22.38     8.61   1.000
  S49                     1980.52       0.00       0.00       0.00      18.02    1962.50    1980.52       13.61     5.24   1.000
  S50                     1980.52       0.00       0.00       0.00      18.02    1962.50    1980.52       11.21     4.31   1.000
  S51                     1980.52       0.00       0.00       0.00      18.02    1962.50    1980.52        6.61     2.55   1.000
  S52                     1980.52       0.00       0.00       0.00      18.02    1962.50    1980.52       17.53     6.74   1.000
  S53                     1980.52       0.00       0.00       0.00      18.02    1944.59    1962.61       23.90     9.26   0.991
  S54                     1980.52       0.00       0.00       0.00      18.02    1961.46    1979.49        9.05     3.48   0.999
  S55                     1980.52       0.00       0.00       0.00      18.02    1962.50    1980.52        0.75     0.29   1.000
  S56                     1980.52       0.00       0.00       0.00      18.02    1962.51    1980.53        0.75     0.29   1.000
  S57                     1980.52       0.00       0.00       0.00      18.02    1962.50    1980.52       10.24     3.94   1.000
  S58                     1980.52       0.00       0.00       0.00      18.02    1962.50    1980.52       13.15     5.06   1.000
  S59                     1980.52       0.00       0.00       0.00      18.02    1962.50    1980.52       12.77     4.92   1.000
  S60                     1980.52       0.00       0.00       0.00      15.25    1965.04    1980.29        7.78     2.99   1.000
  S61                     1980.52       0.00       0.00       0.00      15.25       0.00      15.25        0.05     0.02   0.008
  S62                     1980.52       0.00       0.00       0.00      15.25    1755.77    1771.02       94.91    39.07   0.894
  S63                     1980.52       0.00       0.00       0.00      15.25    1965.27    1980.52       18.62     7.16   1.000
  S64                     1980.52       0.00       0.00       0.00      15.25    1965.27    1980.52       50.40    19.40   1.000
  S65                     1980.52       0.00       0.00       0.00      15.25    1965.27    1980.52        8.04     3.09   1.000
  S66                     1980.52       0.00       0.00       0.00      15.25    1965.27    1980.52       12.97     4.99   1.000
  S67                     1980.52       0.00       0.00       0.00      15.25    1965.27    1980.52       24.24     9.33   1.000
  S68                     1980.52       0.00       0.00       0.00      15.25    1965.27    1980.52       28.42    10.94   1.000
  S69                     1980.52       0.00       0.00       0.00      15.25       0.00      15.25        0.38     0.15   0.008
  S70                     1980.52       0.00       0.00       0.00      15.25    1941.48    1956.73       51.21    19.85   0.988
  S71                     1980.52       0.00       0.00       0.00      18.02    1962.50    1980.52       29.13    11.21   1.000
  S72                     1980.52       0.00       0.00       0.00      15.25    1960.77    1976.02        9.80     3.78   0.998
  S73                     1980.52       0.00       0.00       0.00      15.25    1965.27    1980.52       41.51    15.97   1.000
  S74                     1980.52       0.00       0.00       0.00      15.25       0.00      15.25        0.10     0.04   0.008
  S75                     1980.52       0.00       0.00       0.00      15.25    1965.27    1980.52        1.33     0.51   1.000
  S76                     1980.52       0.00       0.00       0.00      15.25    1965.27    1980.52       26.16    10.07   1.000
  S77                     1980.52       0.00       0.00       0.00      15.25    1965.27    1980.52       21.17     8.15   1.000
  S78                     1980.52       0.00       0.00       0.00      15.25    1965.27    1980.52       15.35     5.91   1.000
  S79                     1980.52       0.00       0.00       0.00      18.02    1962.50    1980.52       13.45     5.17   1.000
  S80                     1980.52       0.00       0.00       0.00      15.25    1965.28    1980.53        5.47     2.10   1.000
  S81                     1980.52       0.00       0.00       0.00      15.25    1965.27    1980.52       22.40     8.62   1.000
  S82                     1980.52       0.00       0.00       0.00      15.25    1965.27    1980.52       21.87     8.41   1.000
  S83                     1980.52       0.00       0.00       0.00      15.25    1965.27    1980.52       14.06     5.41   1.000
  S84                     1980.52       0.00       0.00       0.00      18.02    1962.50    1980.52        9.19     3.54   1.000
  S85                     1980.52       0.00       0.00       0.00      18.02    1950.73    1968.75       24.33     9.41   0.994
  S86                     1980.52       0.00       0.00       0.00       0.00    1962.50    1962.50       22.71     8.74   0.991
  S87                     1980.52       0.00       0.00       0.00      18.02    1962.50    1980.52       24.60     9.47   1.000
  S88                     1980.52       0.00       0.00       0.00      18.02    1962.50    1980.52        4.44     1.71   1.000
  S89                     1980.52       0.00       0.00       0.00      18.02    1962.50    1980.52       20.02     7.70   1.000
  S90                     1980.52       0.00       0.00       0.00       0.00    1962.50    1962.50        9.64     3.71   0.991
  S91                     1980.52       0.00       0.00       0.00      18.02    1962.50    1980.52        3.27     1.26   1.000
  
  
  ******************
  Node Depth Summary
  ******************
  
  ---------------------------------------------------------------------------------
                                 Average  Maximum  Maximum  Time of Max    Reported
                                   Depth    Depth      HGL   Occurrence   Max Depth
  Node                 Type       Meters   Meters   Meters  days hr:min      Meters
  ---------------------------------------------------------------------------------
  J7                   JUNCTION     2.49     2.50     2.50     0  00:05        2.50
  J13                  JUNCTION     2.49     2.50     2.50     0  00:05        2.50
  J19                  JUNCTION     2.49     2.50     2.50     0  00:05        2.50
  J25                  JUNCTION     2.49     2.50     2.50     0  00:05        2.50
  J1                   JUNCTION     2.49     2.50     2.50     0  00:05        2.50
  J2                   JUNCTION     2.49     2.50     2.50     0  00:05        2.50
  J3                   JUNCTION     2.49     2.50     2.50     0  00:05        2.50
  J4                   JUNCTION     2.49     2.50     2.50     0  00:05        2.50
  J5                   JUNCTION     2.49     2.50     2.50     0  00:05        2.50
  J6                   JUNCTION     2.49     2.50     2.50     0  00:05        2.50
  J8                   JUNCTION     2.49     2.50     2.50     0  00:05        2.50
  J9                   JUNCTION     2.49     2.50     2.50     0  00:05        2.50
  J10                  JUNCTION     2.49     2.50     2.50     0  00:05        2.50
  J11                  JUNCTION     2.49     2.50     2.50     0  00:05        2.50
  J12                  JUNCTION     2.49     2.50     2.50     0  00:05        2.50
  J14                  JUNCTION     2.49     2.50     2.50     0  00:05        2.50
  J15                  JUNCTION     2.49     2.50     2.50     0  00:05        2.50
  J16                  JUNCTION     2.49     2.50     2.50     0  00:05        2.50
  J17                  JUNCTION     2.49     2.50     2.50     0  00:05        2.50
  J18                  JUNCTION     2.49     2.50     2.50     0  00:05        2.50
  J20                  JUNCTION     2.49     2.50     2.50     0  00:05        2.50
  J21                  JUNCTION     2.49     2.50     2.50     0  00:05        2.50
  J22                  JUNCTION     2.49     2.50     2.50     0  00:05        2.50
  J23                  JUNCTION     2.49     2.50     2.50     0  00:05        2.50
  J24                  JUNCTION     2.49     2.50     2.50     0  00:05        2.50
  J26                  JUNCTION     2.49     2.50     2.50     0  00:05        2.50
  J27                  JUNCTION     2.49     2.50     2.50     0  00:05        2.50
  J29                  JUNCTION     2.49     2.50     2.50     0  00:05        2.50
  J30                  JUNCTION     2.49     2.50     2.50     0  00:05        2.50
  J31                  JUNCTION     2.49     2.50     2.50     0  00:05        2.50
  J33                  JUNCTION     2.49     2.50     2.50     0  00:05        2.50
  J32                  JUNCTION     2.49     2.50     2.50     0  00:05        2.50
  J28                  JUNCTION     2.49     2.50     2.50     0  00:05        2.50
  OF                   OUTFALL      1.36     1.42     1.42     0  00:05        1.37
  
  
  *******************
  Node Inflow Summary
  *******************
  
  -------------------------------------------------------------------------------------------------
                                  Maximum  Maximum                  Lateral       Total        Flow
                                  Lateral    Total  Time of Max      Inflow      Inflow     Balance
                                   Inflow   Inflow   Occurrence      Volume      Volume       Error
  Node                 Type           CMS      CMS  days hr:min    10^6 ltr    10^6 ltr     Percent
  -------------------------------------------------------------------------------------------------
  J7                   JUNCTION    51.350   51.350     0  00:40         120         120       1.812
  J13                  JUNCTION     4.347    4.347     0  00:10        10.7        10.7       3.194
  J19                  JUNCTION   206.023  206.023     0  00:10         508         508       3.109
  J25                  JUNCTION    25.048   25.206     0  00:40        59.2        60.2       1.643
  J1                   JUNCTION    17.295   17.295     0  00:10        42.7        42.7       3.247
  J2                   JUNCTION    12.994   12.994     0  00:05          32          32       2.340
  J3                   JUNCTION     0.579   22.344     0  00:05        1.43        9.38      20.608
  J4                   JUNCTION    37.624   38.825     0  00:05        92.8        94.3       2.280
  J5                   JUNCTION    31.108   31.108     0  00:10        76.7        76.7       2.049
  J6                   JUNCTION    13.611   13.611     0  00:10        33.6        33.6       3.246
  J8                   JUNCTION    20.942   20.942     0  00:05        51.7        51.7       3.247
  J9                   JUNCTION     9.407    9.407     0  00:10        23.1        23.1       2.536
  J10                  JUNCTION    14.053   14.053     0  00:10        34.7        34.7       2.859
  J11                  JUNCTION    15.097   15.930     0  00:05        37.2        38.4       2.244
  J12                  JUNCTION    15.973   16.148     0  00:05        39.4        39.7       2.233
  J14                  JUNCTION    13.535   13.535     0  00:05        33.4        33.4       3.247
  J15                  JUNCTION    19.346   19.346     0  00:10        47.6        47.6       3.004
  J16                  JUNCTION    11.210   13.505     0  00:05        27.7        30.2       2.758
  J17                  JUNCTION     0.146   11.589     0  00:05        0.36        6.46      14.771
  J18                  JUNCTION     0.511    8.494     0  00:05        1.26         5.1      12.953
  J20                  JUNCTION    37.664   37.664     0  00:10        92.7        92.7       3.090
  J21                  JUNCTION    12.493   12.493     0  00:10        30.8        30.8       3.247
  J22                  JUNCTION    25.561   25.561     0  00:10        62.6        62.6       2.842
  J23                  JUNCTION    13.453   13.917     0  00:10        33.1        33.9       2.428
  J24                  JUNCTION     1.774    4.892     0  00:05        4.38        6.73       5.687
  J26                  JUNCTION    11.035   11.035     0  00:10        27.2        27.2       3.247
  J27                  JUNCTION     9.678   12.969     0  00:05        23.9        26.3       2.486
  J29                  JUNCTION    15.874   16.888     0  00:05        39.2        40.5       2.522
  J30                  JUNCTION     0.000   19.859     0  00:05           0        7.51      23.322
  J31                  JUNCTION    46.631   46.735     0  00:40         108         108       1.356
  J33                  JUNCTION    15.619   15.619     0  00:10        38.5        38.5       3.244
  J32                  JUNCTION     7.125    7.125     0  00:10        17.6        17.6       3.024
  J28                  JUNCTION    11.393   14.798     0  00:05        28.1        30.6       2.636
  OF                   OUTFALL      0.000    7.984     0  00:05           0          21       0.000
  
  
  **********************
  Node Surcharge Summary
  **********************
  
  Surcharging occurs when water rises above the top of the highest conduit.
  ---------------------------------------------------------------------
                                               Max. Height   Min. Depth
                                   Hours       Above Crown    Below Rim
  Node                 Type      Surcharged         Meters       Meters
  ---------------------------------------------------------------------
  J7                   JUNCTION        0.83          0.850        0.000
  J13                  JUNCTION        0.83          0.850        0.000
  J19                  JUNCTION        0.83          0.850        0.000
  J25                  JUNCTION        0.83          0.850        0.000
  J1                   JUNCTION        0.83          0.850        0.000
  J2                   JUNCTION        0.83          0.850        0.000
  J3                   JUNCTION        0.83          0.850        0.000
  J4                   JUNCTION        0.83          0.850        0.000
  J5                   JUNCTION        0.83          0.850        0.000
  J6                   JUNCTION        0.83          0.850        0.000
  J8                   JUNCTION        0.83          0.850        0.000
  J9                   JUNCTION        0.83          0.850        0.000
  J10                  JUNCTION        0.83          0.850        0.000
  J11                  JUNCTION        0.83          0.850        0.000
  J12                  JUNCTION        0.83          0.850        0.000
  J14                  JUNCTION        0.83          0.850        0.000
  J15                  JUNCTION        0.83          0.850        0.000
  J16                  JUNCTION        0.83          0.850        0.000
  J17                  JUNCTION        0.83          0.850        0.000
  J18                  JUNCTION        0.83          0.850        0.000
  J20                  JUNCTION        0.83          0.850        0.000
  J21                  JUNCTION        0.83          0.850        0.000
  J22                  JUNCTION        0.83          0.850        0.000
  J23                  JUNCTION        0.83          0.850        0.000
  J24                  JUNCTION        0.83          0.850        0.000
  J26                  JUNCTION        0.83          0.850        0.000
  J27                  JUNCTION        0.83          0.850        0.000
  J29                  JUNCTION        0.83          0.850        0.000
  J30                  JUNCTION        0.83          0.850        0.000
  J31                  JUNCTION        0.83          0.850        0.000
  J33                  JUNCTION        0.83          0.850        0.000
  J32                  JUNCTION        0.83          0.850        0.000
  J28                  JUNCTION        0.83          0.850        0.000
  
  
  *********************
  Node Flooding Summary
  *********************
  
  Flooding refers to all water that overflows a node, whether it ponds or not.
  --------------------------------------------------------------------------
                                                             Total   Maximum
                                 Maximum   Time of Max       Flood    Ponded
                        Hours       Rate    Occurrence      Volume     Depth
  Node                 Flooded       CMS   days hr:min    10^6 ltr    Meters
  --------------------------------------------------------------------------
  J7                      0.83    51.159      0  00:40     118.446     0.000
  J13                     0.83     4.346      0  00:10      10.701     0.000
  J19                     0.83   198.667      0  00:10     487.000     0.000
  J25                     0.83    24.868      0  00:40      57.711     0.000
  J1                      0.83    17.295      0  00:10      42.660     0.000
  J2                      0.83    12.288      0  00:40      29.367     0.000
  J3                      0.83    20.141      0  00:05       9.377     0.000
  J4                      0.83    36.853      0  00:10      89.948     0.000
  J5                      0.83    29.681      0  00:40      71.569     0.000
  J6                      0.83    13.611      0  00:10      33.571     0.000
  J8                      0.83    20.942      0  00:05      51.655     0.000
  J9                      0.83     8.986      0  00:40      21.816     0.000
  J10                     0.83    13.238      0  00:40      32.510     0.000
  J11                     0.83    14.663      0  00:40      35.844     0.000
  J12                     0.83    15.437      0  00:40      37.462     0.000
  J14                     0.83    13.535      0  00:05      33.384     0.000
  J15                     0.83    18.829      0  00:10      46.671     0.000
  J16                     0.83    11.721      0  00:10      28.448     0.000
  J17                     0.83    10.963      0  00:05       6.464     0.000
  J18                     0.83     7.648      0  00:05       4.558     0.000
  J20                     0.83    37.648      0  00:10      92.685     0.000
  J21                     0.83    12.493      0  00:10      30.815     0.000
  J22                     0.83    24.641      0  00:40      61.006     0.000
  J23                     0.83    12.898      0  00:40      31.349     0.000
  J24                     0.83     4.802      0  00:05       6.728     0.000
  J26                     0.83    11.035      0  00:10      27.219     0.000
  J27                     0.83    10.066      0  00:10      24.181     0.000
  J29                     0.83    15.366      0  00:40      37.721     0.000
  J30                     0.83    17.952      0  00:05       7.515     0.000
  J31                     0.83    46.534      0  00:40     105.985     0.000
  J33                     0.83    15.619      0  00:10      38.522     0.000
  J32                     0.83     6.790      0  00:40      16.908     0.000
  J28                     0.83    11.833      0  00:10      28.501     0.000
  
  
  ***********************
  Outfall Loading Summary
  ***********************
  
  -----------------------------------------------------------
                         Flow       Avg       Max       Total
                         Freq      Flow      Flow      Volume
  Outfall Node           Pcnt       CMS       CMS    10^6 ltr
  -----------------------------------------------------------
  OF                   100.00     7.320     7.984      21.046
  -----------------------------------------------------------
  System               100.00     7.320     7.984      21.046
  
  
  ********************
  Link Flow Summary
  ********************
  
  -----------------------------------------------------------------------------
                                 Maximum  Time of Max   Maximum    Max/    Max/
                                  |Flow|   Occurrence   |Veloc|    Full    Full
  Link                 Type          CMS  days hr:min     m/sec    Flow   Depth
  -----------------------------------------------------------------------------
  P1                   PUMP        0.000     0  00:00                          
  C23                  CONDUIT     0.000     0  00:00      0.00    0.00    1.00
  C24                  CONDUIT     0.735     0  00:05      0.34    6.36    1.00
  C25                  CONDUIT     0.000     0  00:00      0.00    0.00    1.00
  C26                  CONDUIT     0.463     0  00:05      0.22    3.62    1.00
  C27                  CONDUIT     0.000     0  00:00      0.00    0.00    1.00
  C28                  CONDUIT     1.697     0  00:05      0.79   11.70    1.00
  C29                  CONDUIT     0.000     0  00:00      0.00    0.00    1.00
  C30                  CONDUIT     0.541     0  00:05      0.25    4.76    1.00
  C31                  CONDUIT     0.370     0  00:05      0.17    3.24    1.00
  C32                  CONDUIT     4.772     0  00:05      2.23   30.85    1.00
  C33                  CONDUIT    12.125     0  00:05      5.67   70.94    1.00
  C34                  CONDUIT     0.660     0  00:05      0.31    5.25    1.00
  C35                  CONDUIT     0.000     0  00:05      0.00    0.00    1.00
  C36                  CONDUIT     0.000     0  00:05      0.00    0.00    1.00
  C37                  CONDUIT     1.708     0  00:05      0.80   11.72    1.00
  C38                  CONDUIT     2.120     0  00:05      0.99   14.78    1.00
  C39                  CONDUIT     4.868     0  00:05      2.28   30.85    1.00
  C40                  CONDUIT     0.000     0  00:00      0.00    0.00    1.00
  C41                  CONDUIT     0.000     0  00:00      0.00    0.00    1.00
  C43                  CONDUIT     0.000     0  00:00      0.00    0.00    1.00
  C44                  CONDUIT     0.509     0  00:05      0.24    4.34    1.00
  C45                  CONDUIT    10.912     0  00:05      5.10   93.63    1.00
  C46                  CONDUIT     5.831     0  00:05      2.73   48.32    1.00
  C48                  CONDUIT     0.000     0  00:05      0.00    0.00    1.00
  C42                  CONDUIT     3.116     0  00:05      1.46   24.71    1.00
  C50                  CONDUIT     0.506     0  00:05      0.24    4.88    1.00
  C49                  CONDUIT     1.191     0  00:05      0.56   10.39    1.00
  C01                  CONDUIT     0.000     0  00:00      0.00    0.00    1.00
  C02                  CONDUIT     0.000     0  00:00      0.00    0.00    1.00
  C03                  CONDUIT     0.727     0  00:05      0.34    5.80    1.00
  C04                  CONDUIT     0.980     0  00:05      0.46    7.71    1.00
  C05                  CONDUIT     0.852     0  00:05      0.40    6.79    1.00
  C06                  CONDUIT     0.000     0  00:00      0.00    0.00    1.00
  C07                  CONDUIT     0.000     0  00:00      0.00    0.00    1.00
  C08                  CONDUIT     0.000     0  00:00      0.00    0.00    1.00
  C09                  CONDUIT     0.722     0  00:05      0.34    6.32    1.00
  C10                  CONDUIT     0.838     0  00:05      0.39    6.68    1.00
  C11                  CONDUIT     0.000     0  00:00      0.00    0.00    1.00
  C12                  CONDUIT     2.683     0  00:05      1.25   23.11    1.00
  C13                  CONDUIT     2.616     0  00:05      1.22   22.77    1.00
  C14                  CONDUIT     3.154     0  00:05      1.47   25.06    1.00
  C15                  CONDUIT     0.359     0  00:05      0.17    2.85    1.00
  C16                  CONDUIT     2.265     0  00:05      1.06   19.89    1.00
  C17                  CONDUIT     5.247     0  00:05      2.45   46.31    1.00
  C18                  CONDUIT     0.000     0  00:00      0.00    0.00    1.00
  C19                  CONDUIT     0.000     0  00:00      0.00    0.00    1.00
  C20                  CONDUIT     5.367     0  00:05      2.51   47.78    1.00
  C21                  CONDUIT     0.000     0  00:05      0.00    0.00    1.00
  C22                  CONDUIT     0.175     0  00:05      0.08    1.38    1.00
  C47                  CONDUIT     0.231     0  00:05      0.11    2.38    1.00
  Cout                 CONDUIT     7.984     0  00:05      3.85   63.04    0.93
  
  
  ***************************
  Flow Classification Summary
  ***************************
  
  -------------------------------------------------------------------------------------
                      Adjusted    ---------- Fraction of Time in Flow Class ---------- 
                       /Actual         Up    Down  Sub   Sup   Up    Down  Norm  Inlet 
  Conduit               Length    Dry  Dry   Dry   Crit  Crit  Crit  Crit  Ltd   Ctrl  
  -------------------------------------------------------------------------------------
  C23                     1.00   0.00  0.00  0.00  1.00  0.00  0.00  0.00  0.00  0.00
  C24                     1.00   0.00  0.00  0.00  1.00  0.00  0.00  0.00  0.00  0.00
  C25                     1.00   0.00  0.00  0.00  1.00  0.00  0.00  0.00  0.00  0.00
  C26                     1.00   0.00  0.00  0.00  1.00  0.00  0.00  0.00  0.00  0.00
  C27                     1.00   0.00  0.00  0.00  1.00  0.00  0.00  0.00  0.00  0.00
  C28                     1.00   0.00  0.00  0.00  1.00  0.00  0.00  0.00  0.00  0.00
  C29                     1.00   0.00  0.00  0.00  1.00  0.00  0.00  0.00  0.00  0.00
  C30                     1.00   0.00  0.00  0.00  1.00  0.00  0.00  0.00  0.00  0.00
  C31                     1.00   0.00  0.00  0.00  1.00  0.00  0.00  0.00  0.00  0.00
  C32                     1.00   0.00  0.00  0.00  1.00  0.00  0.00  0.00  0.00  0.00
  C33                     1.00   0.00  0.00  0.00  1.00  0.00  0.00  0.00  0.00  0.00
  C34                     1.00   0.00  0.00  0.00  1.00  0.00  0.00  0.00  0.00  0.00
  C35                     1.00   0.00  0.00  0.00  1.00  0.00  0.00  0.00  0.00  0.00
  C36                     1.00   0.00  0.00  0.00  1.00  0.00  0.00  0.00  0.00  0.00
  C37                     1.00   0.00  0.00  0.00  1.00  0.00  0.00  0.00  0.00  0.00
  C38                     1.00   0.00  0.00  0.00  1.00  0.00  0.00  0.00  0.00  0.00
  C39                     1.00   0.00  0.00  0.00  1.00  0.00  0.00  0.00  0.00  0.00
  C40                     1.00   0.00  0.00  0.00  1.00  0.00  0.00  0.00  0.00  0.00
  C41                     1.00   0.00  0.00  0.00  1.00  0.00  0.00  0.00  0.00  0.00
  C43                     1.00   0.00  0.00  0.00  1.00  0.00  0.00  0.00  0.00  0.00
  C44                     1.00   0.00  0.00  0.00  1.00  0.00  0.00  0.00  0.00  0.00
  C45                     1.00   0.00  0.00  0.00  1.00  0.00  0.00  0.00  0.00  0.00
  C46                     1.00   0.00  0.00  0.00  1.00  0.00  0.00  0.00  0.00  0.00
  C48                     1.00   0.00  0.00  0.00  1.00  0.00  0.00  0.00  0.00  0.00
  C42                     1.00   0.00  0.00  0.00  1.00  0.00  0.00  0.00  0.00  0.00
  C50                     1.00   0.00  0.00  0.00  1.00  0.00  0.00  0.00  0.00  0.00
  C49                     1.00   0.00  0.00  0.00  1.00  0.00  0.00  0.00  0.00  0.00
  C01                     1.00   0.00  0.00  0.00  1.00  0.00  0.00  0.00  0.00  0.00
  C02                     1.00   0.00  0.00  0.00  1.00  0.00  0.00  0.00  0.00  0.00
  C03                     1.00   0.00  0.00  0.00  1.00  0.00  0.00  0.00  0.00  0.00
  C04                     1.00   0.00  0.00  0.00  1.00  0.00  0.00  0.00  0.00  0.00
  C05                     1.00   0.00  0.00  0.00  1.00  0.00  0.00  0.00  0.00  0.00
  C06                     1.00   0.00  0.00  0.00  1.00  0.00  0.00  0.00  0.00  0.00
  C07                     1.00   0.00  0.00  0.00  1.00  0.00  0.00  0.00  0.00  0.00
  C08                     1.00   0.00  0.00  0.00  1.00  0.00  0.00  0.00  0.00  0.00
  C09                     1.00   0.00  0.00  0.00  1.00  0.00  0.00  0.00  0.00  0.00
  C10                     1.00   0.00  0.00  0.00  1.00  0.00  0.00  0.00  0.00  0.00
  C11                     1.00   0.00  0.00  0.00  1.00  0.00  0.00  0.00  0.00  0.00
  C12                     1.00   0.00  0.00  0.00  1.00  0.00  0.00  0.00  0.00  0.00
  C13                     1.00   0.00  0.00  0.00  1.00  0.00  0.00  0.00  0.00  0.00
  C14                     1.00   0.00  0.00  0.00  1.00  0.00  0.00  0.00  0.00  0.00
  C15                     1.00   0.00  0.00  0.00  1.00  0.00  0.00  0.00  0.00  0.00
  C16                     1.00   0.00  0.00  0.00  1.00  0.00  0.00  0.00  0.00  0.00
  C17                     1.00   0.00  0.00  0.00  1.00  0.00  0.00  0.00  0.00  0.00
  C18                     1.00   0.00  0.00  0.00  1.00  0.00  0.00  0.00  0.00  0.00
  C19                     1.00   0.00  0.00  0.00  1.00  0.00  0.00  0.00  0.00  0.00
  C20                     1.00   0.00  0.00  0.00  1.00  0.00  0.00  0.00  0.00  0.00
  C21                     1.00   0.00  0.00  0.00  1.00  0.00  0.00  0.00  0.00  0.00
  C22                     1.00   0.00  0.00  0.00  1.00  0.00  0.00  0.00  0.00  0.00
  C47                     1.00   0.00  0.00  0.00  1.00  0.00  0.00  0.00  0.00  0.00
  Cout                    1.00   0.00  0.00  0.00  1.00  0.00  0.00  0.00  0.00  0.00
  
  
  *************************
  Conduit Surcharge Summary
  *************************
  
  ----------------------------------------------------------------------------
                                                           Hours        Hours 
                         --------- Hours Full --------   Above Full   Capacity
  Conduit                Both Ends  Upstream  Dnstream   Normal Flow   Limited
  ----------------------------------------------------------------------------
  C23                         0.83      0.83      0.83      0.01         0.01
  C24                         0.83      0.83      0.83      0.83         0.01
  C25                         0.83      0.83      0.83      0.01         0.01
  C26                         0.83      0.83      0.83      0.71         0.01
  C27                         0.83      0.83      0.83      0.01         0.01
  C28                         0.83      0.83      0.83      0.78         0.01
  C29                         0.83      0.83      0.83      0.01         0.01
  C30                         0.83      0.83      0.83      0.83         0.01
  C31                         0.83      0.83      0.83      0.75         0.01
  C32                         0.83      0.83      0.83      0.78         0.01
  C33                         0.83      0.83      0.83      0.73         0.01
  C34                         0.83      0.83      0.83      0.79         0.01
  C35                         0.83      0.83      0.83      0.01         0.01
  C36                         0.83      0.83      0.83      0.01         0.01
  C37                         0.83      0.83      0.83      0.78         0.01
  C38                         0.83      0.83      0.83      0.80         0.01
  C39                         0.83      0.83      0.83      0.76         0.01
  C40                         0.83      0.83      0.83      0.01         0.01
  C41                         0.83      0.83      0.83      0.01         0.01
  C43                         0.83      0.83      0.83      0.01         0.01
  C44                         0.83      0.83      0.83      0.81         0.01
  C45                         0.83      0.83      0.83      0.83         0.01
  C46                         0.83      0.83      0.83      0.83         0.01
  C48                         0.83      0.83      0.83      0.01         0.01
  C42                         0.83      0.83      0.83      0.83         0.01
  C50                         0.83      0.83      0.83      0.83         0.01
  C49                         0.83      0.83      0.83      0.83         0.01
  C01                         0.83      0.83      0.83      0.01         0.01
  C02                         0.83      0.83      0.83      0.01         0.01
  C03                         0.83      0.83      0.83      0.81         0.01
  C04                         0.83      0.83      0.83      0.83         0.01
  C05                         0.83      0.83      0.83      0.83         0.01
  C06                         0.83      0.83      0.83      0.01         0.01
  C07                         0.83      0.83      0.83      0.01         0.01
  C08                         0.83      0.83      0.83      0.01         0.01
  C09                         0.83      0.83      0.83      0.83         0.01
  C10                         0.83      0.83      0.83      0.83         0.01
  C11                         0.83      0.83      0.83      0.01         0.01
  C12                         0.83      0.83      0.83      0.83         0.01
  C13                         0.83      0.83      0.83      0.83         0.01
  C14                         0.83      0.83      0.83      0.83         0.01
  C15                         0.83      0.83      0.83      0.65         0.01
  C16                         0.83      0.83      0.83      0.83         0.01
  C17                         0.83      0.83      0.83      0.83         0.01
  C18                         0.83      0.83      0.83      0.01         0.01
  C19                         0.83      0.83      0.83      0.01         0.01
  C20                         0.83      0.83      0.83      0.83         0.01
  C21                         0.83      0.83      0.83      0.01         0.01
  C22                         0.83      0.83      0.83      0.32         0.01
  C47                         0.83      0.83      0.83      0.74         0.01
  Cout                        0.01      0.83      0.01      0.83         0.01
  
  
  ***************
  Pumping Summary
  ***************
  
  ---------------------------------------------------------------------------------------------------------
                                                  Min       Avg       Max     Total     Power    % Time Off
                        Percent   Number of      Flow      Flow      Flow    Volume     Usage    Pump Curve
  Pump                 Utilized   Start-Ups       CMS       CMS       CMS  10^6 ltr     Kw-hr    Low   High
  ---------------------------------------------------------------------------------------------------------
  P1                       0.00           0      0.00      0.00      0.00     0.000      0.00    0.0    0.0
  

  Analysis begun on:  Mon Nov 18 19:50:02 2024
  Analysis ended on:  Mon Nov 18 19:50:02 2024
  Total elapsed time: < 1 sec