
  EPA STORM WATER MANAGEMENT MODEL - VERSION 5.2 (Build 5.2.4)
  PYSWMM TOOLKIT API - VERSION v1.0 (2023-11-27)
  ------------------------------------------------------------

  WARNING 04: minimum elevation drop used for Conduit C23
  WARNING 04: minimum elevation drop used for Conduit C24
  WARNING 04: minimum elevation drop used for Conduit C25
  WARNING 04: minimum elevation drop used for Conduit C26
  WARNING 04: minimum elevation drop used for Conduit C27
  WARNING 04: minimum elevation drop used for Conduit C28
  WARNING 04: minimum elevation drop used for Conduit C29
  WARNING 04: minimum elevation drop used for Conduit C30
  WARNING 04: minimum elevation drop used for Conduit C31
  WARNING 04: minimum elevation drop used for Conduit C32
  WARNING 04: minimum elevation drop used for Conduit C33
  WARNING 04: minimum elevation drop used for Conduit C34
  WARNING 04: minimum elevation drop used for Conduit C35
  WARNING 04: minimum elevation drop used for Conduit C36
  WARNING 04: minimum elevation drop used for Conduit C37
  WARNING 04: minimum elevation drop used for Conduit C38
  WARNING 04: minimum elevation drop used for Conduit C39
  WARNING 04: minimum elevation drop used for Conduit C40
  WARNING 04: minimum elevation drop used for Conduit C41
  WARNING 04: minimum elevation drop used for Conduit C43
  WARNING 04: minimum elevation drop used for Conduit C44
  WARNING 04: minimum elevation drop used for Conduit C45
  WARNING 04: minimum elevation drop used for Conduit C46
  WARNING 04: minimum elevation drop used for Conduit C48
  WARNING 04: minimum elevation drop used for Conduit C42
  WARNING 04: minimum elevation drop used for Conduit C50
  WARNING 04: minimum elevation drop used for Conduit C49
  WARNING 04: minimum elevation drop used for Conduit C01
  WARNING 04: minimum elevation drop used for Conduit C02
  WARNING 04: minimum elevation drop used for Conduit C03
  WARNING 04: minimum elevation drop used for Conduit C04
  WARNING 04: minimum elevation drop used for Conduit C05
  WARNING 04: minimum elevation drop used for Conduit C06
  WARNING 04: minimum elevation drop used for Conduit C07
  WARNING 04: minimum elevation drop used for Conduit C08
  WARNING 04: minimum elevation drop used for Conduit C09
  WARNING 04: minimum elevation drop used for Conduit C10
  WARNING 04: minimum elevation drop used for Conduit C11
  WARNING 04: minimum elevation drop used for Conduit C12
  WARNING 04: minimum elevation drop used for Conduit C13
  WARNING 04: minimum elevation drop used for Conduit C14
  WARNING 04: minimum elevation drop used for Conduit C15
  WARNING 04: minimum elevation drop used for Conduit C16
  WARNING 04: minimum elevation drop used for Conduit C17
  WARNING 04: minimum elevation drop used for Conduit C18
  WARNING 04: minimum elevation drop used for Conduit C19
  WARNING 04: minimum elevation drop used for Conduit C20
  WARNING 04: minimum elevation drop used for Conduit C21
  WARNING 04: minimum elevation drop used for Conduit C22
  WARNING 04: minimum elevation drop used for Conduit C47
  WARNING 04: minimum elevation drop used for Conduit Cout
  
  ****************
  Analysis Options
  ****************
  Flow Units ............... CMS
  Process Models:
    Rainfall/Runoff ........ YES
    RDII ................... NO
    Snowmelt ............... NO
    Groundwater ............ NO
    Flow Routing ........... YES
    Ponding Allowed ........ NO
    Water Quality .......... NO
  Infiltration Method ...... HORTON
  Flow Routing Method ...... DYNWAVE
  Surcharge Method ......... EXTRAN
  Starting Date ............ 05/10/2023 12:00:00
  Ending Date .............. 05/10/2023 12:40:00
  Antecedent Dry Days ...... 0.0
  Report Time Step ......... 00:10:00
  Wet Time Step ............ 00:05:00
  Dry Time Step ............ 01:00:00
  Routing Time Step ........ 300.00 sec
  Variable Time Step ....... YES
  Maximum Trials ........... 8
  Number of Threads ........ 1
  Head Tolerance ........... 0.001524 m
  
  
  *********************
  Rainfall File Summary
  *********************
  Station    First        Last         Recording   Periods    Periods    Periods
  ID         Date         Date         Frequency  w/Precip    Missing    Malfunc.
  -------------------------------------------------------------------------------
  375        05/10/2023   05/10/2023      10 min         5          0          0

  
  
  **************************        Volume         Depth
  Runoff Quantity Continuity     hectare-m            mm
  **************************     ---------       -------
  Total Precipitation ......        86.357       863.600
  Evaporation Loss .........         0.000         0.000
  Infiltration Loss ........         0.000         0.000
  Surface Runoff ...........        82.358       823.608
  Final Storage ............         4.745        47.454
  Continuity Error (%) .....        -0.864
  
  
  **************************        Volume        Volume
  Flow Routing Continuity        hectare-m      10^6 ltr
  **************************     ---------     ---------
  Dry Weather Inflow .......         0.000         0.000
  Wet Weather Inflow .......        82.350       823.507
  Groundwater Inflow .......         0.000         0.000
  RDII Inflow ..............         0.000         0.000
  External Inflow ..........         0.000         0.000
  External Outflow .........         1.664        16.641
  Flooding Loss ............        76.543       765.438
  Evaporation Loss .........         0.000         0.000
  Exfiltration Loss ........         0.000         0.000
  Initial Stored Volume ....         0.046         0.463
  Final Stored Volume ......         1.883        18.831
  Continuity Error (%) .....         2.799
  
  
  *************************
  Highest Continuity Errors
  *************************
  Node J30 (19.66%)
  Node J3 (18.60%)
  Node J17 (12.29%)
  Node J18 (9.52%)
  Node J24 (8.76%)
  
  
  ***************************
  Time-Step Critical Elements
  ***************************
  Link Cout (98.69%)
  
  
  ********************************
  Highest Flow Instability Indexes
  ********************************
  Link C24 (2)
  Link C31 (2)
  Link C33 (2)
  Link C34 (2)
  Link C36 (2)
  
  
  *********************************
  Most Frequent Nonconverging Nodes
  *********************************
  Convergence obtained at all time steps.
  
  
  *************************
  Routing Time Step Summary
  *************************
  Minimum Time Step           :     4.92 sec
  Average Time Step           :    15.69 sec
  Maximum Time Step           :   300.00 sec
  % of Time in Steady State   :     0.00
  Average Iterations per Step :     2.03
  % of Steps Not Converging   :     0.00
  Time Step Frequencies       :
     300.000 - 83.462 sec      :     0.66 %
     83.462 - 23.220 sec      :     0.00 %
     23.220 -  6.460 sec      :    98.68 %
      6.460 -  1.797 sec      :     0.66 %
      1.797 -  0.500 sec      :     0.00 %
  
  
  ***************************
  Subcatchment Runoff Summary
  ***************************
  
  ------------------------------------------------------------------------------------------------------------------------------
                            Total      Total      Total      Total     Imperv       Perv      Total       Total     Peak  Runoff
                           Precip      Runon       Evap      Infil     Runoff     Runoff     Runoff      Runoff   Runoff   Coeff
  Subcatchment                 mm         mm         mm         mm         mm         mm         mm    10^6 ltr      CMS
  ------------------------------------------------------------------------------------------------------------------------------
  S1                       863.60       0.00       0.00       0.00       8.55     855.05     863.60      217.85   170.88   1.000
  S2                       863.60       0.00       0.00       0.00       7.86     859.29     867.15        6.74     5.26   1.004
  S3                       863.60       0.00       0.00       0.00       7.86     855.74     863.60        1.79     1.40   1.000
  S4                       863.60       0.00       0.00       0.00       7.86     855.74     863.60        1.77     1.39   1.000
  S5                       863.60       0.00       0.00       0.00       7.86     855.74     863.60        2.58     2.03   1.000
  S6                       863.60       0.00       0.00       0.00       7.86     855.74     863.60        7.12     5.58   1.000
  S7                       863.60       0.00       0.00       0.00       7.86     855.74     863.60        1.34     1.05   1.000
  S8                       863.60       0.00       0.00       0.00       7.86     855.74     863.60        4.21     3.30   1.000
  S9                       863.60       0.00       0.00       0.00       7.86     855.74     863.60        5.20     4.08   1.000
  S10                      863.60       0.00       0.00       0.00       0.00     855.74     855.74        1.21     0.95   0.991
  S11                      863.60       0.00       0.00       0.00       7.86     852.73     860.59       12.59     9.69   0.997
  S12                      863.60       0.00       0.00       0.00       7.86     855.74     863.60        7.50     5.88   1.000
  S13                      863.60       0.00       0.00       0.00       0.00     855.74     855.74        7.22     5.67   0.991
  S14                      863.60       0.00       0.00       0.00       7.25     856.35     863.60        6.93     5.44   1.000
  S15                      863.60       0.00       0.00       0.00       7.25     856.35     863.60        6.48     5.08   1.000
  S16                      863.60       0.00       0.00       0.00       6.65     863.91     870.56       15.37    11.96   1.008
  S17                      863.60       0.00       0.00       0.00       6.65     819.85     826.50       28.14    20.15   0.957
  S18                      863.60       0.00       0.00       0.00       6.65     857.08     863.73        1.11     0.87   1.000
  S19                      863.60       0.00       0.00       0.00       6.65       0.00       6.65        0.02     0.01   0.008
  S20                      863.60       0.00       0.00       0.00       6.65     857.02     863.67        0.88     0.69   1.000
  S21                      863.60       0.00       0.00       0.00       6.65     861.45     868.10       14.39    11.17   1.005
  S22                      863.60       0.00       0.00       0.00       6.65     856.94     863.59        0.28     0.22   1.000
  S23                      863.60       0.00       0.00       0.00       6.65     856.95     863.60        0.34     0.26   1.000
  S24                      863.60       0.00       0.00       0.00       6.65     856.95     863.60        0.42     0.33   1.000
  S25                      863.60       0.00       0.00       0.00       6.65     856.95     863.60        0.51     0.40   1.000
  S26                      863.60       0.00       0.00       0.00       6.65     856.95     863.60        0.60     0.47   1.000
  S27                      863.60       0.00       0.00       0.00       6.65     858.17     864.82        7.19     5.63   1.001
  S28                      863.60       0.00       0.00       0.00       6.65     862.23     868.88        7.72     5.99   1.006
  S29                      863.60       0.00       0.00       0.00       6.65     857.00     863.65        0.79     0.62   1.000
  S30                      863.60       0.00       0.00       0.00       6.65     801.24     807.89       51.46    37.35   0.935
  S31                      863.60       0.00       0.00       0.00       6.91     856.69     863.60       11.70     9.18   1.000
  S32                      863.60       0.00       0.00       0.00       6.91     856.69     863.60        3.60     2.82   1.000
  S33                      863.60       0.00       0.00       0.00       8.12     855.48     863.60        2.69     2.11   1.000
  S34                      863.60       0.00       0.00       0.00       8.12     855.48     863.60        2.84     2.23   1.000
  S35                      863.60       0.00       0.00       0.00       7.86     855.74     863.60        3.47     2.72   1.000
  S36                      863.60       0.00       0.00       0.00       7.86     855.74     863.60        1.42     1.12   1.000
  S37                      863.60       0.00       0.00       0.00       7.86     855.74     863.60        3.11     2.44   1.000
  S38                      863.60       0.00       0.00       0.00       7.86     855.74     863.60        0.14     0.11   1.000
  S39                      863.60       0.00       0.00       0.00       7.86     855.74     863.60        3.54     2.78   1.000
  S40                      863.60       0.00       0.00       0.00       7.86     855.74     863.60        1.22     0.96   1.000
  S41                      863.60       0.00       0.00       0.00       7.86     855.74     863.60        1.96     1.54   1.000
  S42                      863.60       0.00       0.00       0.00       7.86     855.74     863.60        2.73     2.14   1.000
  S43                      863.60       0.00       0.00       0.00       7.86     855.74     863.60        6.22     4.88   1.000
  S44                      863.60       0.00       0.00       0.00       7.86     855.74     863.60        4.51     3.54   1.000
  S45                      863.60       0.00       0.00       0.00       7.86     855.74     863.60        0.46     0.36   1.000
  S46                      863.60       0.00       0.00       0.00       7.86     855.74     863.60        4.18     3.28   1.000
  S47                      863.60       0.00       0.00       0.00       7.86     855.74     863.60        8.45     6.63   1.000
  S48                      863.60       0.00       0.00       0.00       7.86     855.74     863.60        9.76     7.65   1.000
  S49                      863.60       0.00       0.00       0.00       7.86     855.74     863.60        5.93     4.65   1.000
  S50                      863.60       0.00       0.00       0.00       7.86     855.74     863.60        4.89     3.83   1.000
  S51                      863.60       0.00       0.00       0.00       7.86     855.74     863.60        2.88     2.26   1.000
  S52                      863.60       0.00       0.00       0.00       7.86     855.74     863.60        7.64     6.00   1.000
  S53                      863.60       0.00       0.00       0.00       7.86     861.29     869.15       10.59     8.22   1.006
  S54                      863.60       0.00       0.00       0.00       7.86     860.50     868.36        3.97     3.10   1.006
  S55                      863.60       0.00       0.00       0.00       7.86     855.74     863.60        0.33     0.26   1.000
  S56                      863.60       0.00       0.00       0.00       7.86     855.69     863.55        0.33     0.26   1.000
  S57                      863.60       0.00       0.00       0.00       7.86     855.74     863.60        4.46     3.50   1.000
  S58                      863.60       0.00       0.00       0.00       7.86     855.74     863.60        5.73     4.50   1.000
  S59                      863.60       0.00       0.00       0.00       7.86     855.74     863.60        5.57     4.37   1.000
  S60                      863.60       0.00       0.00       0.00       6.65     859.85     866.50        3.41     2.66   1.003
  S61                      863.60       0.00       0.00       0.00       6.65       0.00       6.65        0.02     0.02   0.008
  S62                      863.60       0.00       0.00       0.00       6.65     787.24     793.89       42.55    31.07   0.919
  S63                      863.60       0.00       0.00       0.00       6.65     856.95     863.60        8.12     6.37   1.000
  S64                      863.60       0.00       0.00       0.00       6.65     856.95     863.60       21.98    17.24   1.000
  S65                      863.60       0.00       0.00       0.00       6.65     856.95     863.60        3.51     2.75   1.000
  S66                      863.60       0.00       0.00       0.00       6.65     856.95     863.60        5.66     4.44   1.000
  S67                      863.60       0.00       0.00       0.00       6.65     856.95     863.60       10.57     8.29   1.000
  S68                      863.60       0.00       0.00       0.00       6.65     856.95     863.60       12.39     9.72   1.000
  S69                      863.60       0.00       0.00       0.00       6.65       0.00       6.65        0.17     0.13   0.008
  S70                      863.60       0.00       0.00       0.00       6.65     861.07     867.72       22.71    17.61   1.005
  S71                      863.60       0.00       0.00       0.00       7.86     855.74     863.60       12.70     9.96   1.000
  S72                      863.60       0.00       0.00       0.00       6.65     863.68     870.33        4.32     3.36   1.008
  S73                      863.60       0.00       0.00       0.00       6.65     856.95     863.60       18.10    14.20   1.000
  S74                      863.60       0.00       0.00       0.00       6.65       0.00       6.65        0.04     0.03   0.008
  S75                      863.60       0.00       0.00       0.00       6.65     856.95     863.60        0.58     0.45   1.000
  S76                      863.60       0.00       0.00       0.00       6.65     856.95     863.60       11.41     8.95   1.000
  S77                      863.60       0.00       0.00       0.00       6.65     856.95     863.60        9.23     7.24   1.000
  S78                      863.60       0.00       0.00       0.00       6.65     856.95     863.60        6.69     5.25   1.000
  S79                      863.60       0.00       0.00       0.00       7.86     855.74     863.60        5.86     4.60   1.000
  S80                      863.60       0.00       0.00       0.00       6.65     858.06     864.71        2.39     1.87   1.001
  S81                      863.60       0.00       0.00       0.00       6.65     856.95     863.60        9.77     7.66   1.000
  S82                      863.60       0.00       0.00       0.00       6.65     856.95     863.60        9.53     7.48   1.000
  S83                      863.60       0.00       0.00       0.00       6.65     856.95     863.60        6.13     4.81   1.000
  S84                      863.60       0.00       0.00       0.00       7.86     855.74     863.60        4.01     3.14   1.000
  S85                      863.60       0.00       0.00       0.00       7.86     862.41     870.27       10.76     8.36   1.008
  S86                      863.60       0.00       0.00       0.00       0.00     855.74     855.74        9.90     7.77   0.991
  S87                      863.60       0.00       0.00       0.00       7.86     855.74     863.60       10.73     8.41   1.000
  S88                      863.60       0.00       0.00       0.00       7.86     855.74     863.60        1.93     1.52   1.000
  S89                      863.60       0.00       0.00       0.00       7.86     855.74     863.60        8.73     6.85   1.000
  S90                      863.60       0.00       0.00       0.00       0.00     855.74     855.74        4.20     3.30   0.991
  S91                      863.60       0.00       0.00       0.00       7.86     855.74     863.60        1.42     1.12   1.000
  
  
  ******************
  Node Depth Summary
  ******************
  
  ---------------------------------------------------------------------------------
                                 Average  Maximum  Maximum  Time of Max    Reported
                                   Depth    Depth      HGL   Occurrence   Max Depth
  Node                 Type       Meters   Meters   Meters  days hr:min      Meters
  ---------------------------------------------------------------------------------
  J7                   JUNCTION     2.48     2.50     2.50     0  00:05        2.50
  J13                  JUNCTION     2.48     2.50     2.50     0  00:05        2.50
  J19                  JUNCTION     2.48     2.50     2.50     0  00:05        2.50
  J25                  JUNCTION     2.48     2.50     2.50     0  00:05        2.50
  J1                   JUNCTION     2.48     2.50     2.50     0  00:05        2.50
  J2                   JUNCTION     2.48     2.50     2.50     0  00:05        2.50
  J3                   JUNCTION     2.48     2.50     2.50     0  00:05        2.50
  J4                   JUNCTION     2.48     2.50     2.50     0  00:05        2.50
  J5                   JUNCTION     2.48     2.50     2.50     0  00:05        2.50
  J6                   JUNCTION     2.48     2.50     2.50     0  00:05        2.50
  J8                   JUNCTION     2.48     2.50     2.50     0  00:05        2.50
  J9                   JUNCTION     2.48     2.50     2.50     0  00:05        2.50
  J10                  JUNCTION     2.48     2.50     2.50     0  00:05        2.50
  J11                  JUNCTION     2.48     2.50     2.50     0  00:05        2.50
  J12                  JUNCTION     2.48     2.50     2.50     0  00:05        2.50
  J14                  JUNCTION     2.48     2.50     2.50     0  00:05        2.50
  J15                  JUNCTION     2.48     2.50     2.50     0  00:05        2.50
  J16                  JUNCTION     2.48     2.50     2.50     0  00:05        2.50
  J17                  JUNCTION     2.48     2.50     2.50     0  00:05        2.50
  J18                  JUNCTION     2.48     2.50     2.50     0  00:05        2.50
  J20                  JUNCTION     2.48     2.50     2.50     0  00:05        2.50
  J21                  JUNCTION     2.48     2.50     2.50     0  00:05        2.50
  J22                  JUNCTION     2.48     2.50     2.50     0  00:05        2.50
  J23                  JUNCTION     2.48     2.50     2.50     0  00:05        2.50
  J24                  JUNCTION     2.48     2.50     2.50     0  00:05        2.50
  J26                  JUNCTION     2.48     2.50     2.50     0  00:05        2.50
  J27                  JUNCTION     2.48     2.50     2.50     0  00:05        2.50
  J29                  JUNCTION     2.48     2.50     2.50     0  00:05        2.50
  J30                  JUNCTION     2.48     2.50     2.50     0  00:05        2.50
  J31                  JUNCTION     2.48     2.50     2.50     0  00:05        2.50
  J33                  JUNCTION     2.48     2.50     2.50     0  00:05        2.50
  J32                  JUNCTION     2.48     2.50     2.50     0  00:05        2.50
  J28                  JUNCTION     2.48     2.50     2.50     0  00:05        2.50
  OF                   OUTFALL      1.36     1.41     1.41     0  00:05        1.37
  
  
  *******************
  Node Inflow Summary
  *******************
  
  -------------------------------------------------------------------------------------------------
                                  Maximum  Maximum                  Lateral       Total        Flow
                                  Lateral    Total  Time of Max      Inflow      Inflow     Balance
                                   Inflow   Inflow   Occurrence      Volume      Volume       Error
  Node                 Type           CMS      CMS  days hr:min    10^6 ltr    10^6 ltr     Percent
  -------------------------------------------------------------------------------------------------
  J7                   JUNCTION    40.906   40.906     0  00:20        56.3        56.3       2.737
  J13                  JUNCTION     3.864    3.864     0  00:10        4.97        4.97       5.759
  J19                  JUNCTION   183.124  183.124     0  00:10         234         234       5.627
  J25                  JUNCTION    20.154   20.154     0  00:20        27.9        27.9       2.670
  J1                   JUNCTION    15.374   15.374     0  00:05        19.6        19.6       5.945
  J2                   JUNCTION    11.550   11.550     0  00:10        14.8        14.8       4.269
  J3                   JUNCTION     0.515   19.972     0  00:05       0.658        7.69      22.849
  J4                   JUNCTION    33.444   35.196     0  00:05        42.7        44.4       3.712
  J5                   JUNCTION    27.652   27.652     0  00:05        35.3        35.3       3.087
  J6                   JUNCTION    12.098   12.098     0  00:10        15.5        15.5       5.841
  J8                   JUNCTION    18.615   18.615     0  00:10        23.8        23.8       5.945
  J9                   JUNCTION     8.358    8.358     0  00:10        10.8        10.8       4.163
  J10                  JUNCTION    12.491   12.491     0  00:05          16          16       4.932
  J11                  JUNCTION    13.420   14.133     0  00:05        17.2        18.1       4.717
  J12                  JUNCTION    14.198   14.549     0  00:05        18.1        18.7       4.782
  J14                  JUNCTION    12.031   12.031     0  00:10        15.4        15.4       5.945
  J15                  JUNCTION    17.188   17.188     0  00:10        22.1        22.1       5.308
  J16                  JUNCTION     9.965   12.506     0  00:05        12.7        15.1       4.662
  J17                  JUNCTION     0.130    8.810     0  00:05       0.166        5.16      14.007
  J18                  JUNCTION     0.454    4.331     0  00:05        0.58        3.05      10.518
  J20                  JUNCTION    33.434   33.434     0  00:10        42.9        42.9       5.557
  J21                  JUNCTION    11.105   11.105     0  00:05        14.2        14.2       5.945
  J22                  JUNCTION    22.692   22.692     0  00:10        29.2        29.2       4.900
  J23                  JUNCTION    11.956   12.450     0  00:10        15.4        16.2       4.474
  J24                  JUNCTION     1.577    5.184     0  00:05        2.02        4.25       9.604
  J26                  JUNCTION     9.809    9.809     0  00:10        12.5        12.5       5.945
  J27                  JUNCTION     8.603   10.603     0  00:05          11        12.8       4.864
  J29                  JUNCTION    14.110   15.579     0  00:05          18        19.5       4.519
  J30                  JUNCTION     0.000   19.785     0  00:05           0         7.2      24.474
  J31                  JUNCTION    37.348   37.617     0  00:20        50.8        51.5       1.935
  J33                  JUNCTION    13.884   13.884     0  00:10        17.8        17.8       5.929
  J32                  JUNCTION     6.334    6.334     0  00:10         8.1         8.1       5.288
  J28                  JUNCTION    10.127   13.773     0  00:05        12.9        15.4       4.366
  OF                   OUTFALL      0.000    7.967     0  00:05           0        16.6       0.000
  
  
  **********************
  Node Surcharge Summary
  **********************
  
  Surcharging occurs when water rises above the top of the highest conduit.
  ---------------------------------------------------------------------
                                               Max. Height   Min. Depth
                                   Hours       Above Crown    Below Rim
  Node                 Type      Surcharged         Meters       Meters
  ---------------------------------------------------------------------
  J7                   JUNCTION        0.67          0.850        0.000
  J13                  JUNCTION        0.67          0.850        0.000
  J19                  JUNCTION        0.67          0.850        0.000
  J25                  JUNCTION        0.67          0.850        0.000
  J1                   JUNCTION        0.67          0.850        0.000
  J2                   JUNCTION        0.67          0.850        0.000
  J3                   JUNCTION        0.67          0.850        0.000
  J4                   JUNCTION        0.67          0.850        0.000
  J5                   JUNCTION        0.67          0.850        0.000
  J6                   JUNCTION        0.67          0.850        0.000
  J8                   JUNCTION        0.67          0.850        0.000
  J9                   JUNCTION        0.67          0.850        0.000
  J10                  JUNCTION        0.67          0.850        0.000
  J11                  JUNCTION        0.67          0.850        0.000
  J12                  JUNCTION        0.67          0.850        0.000
  J14                  JUNCTION        0.67          0.850        0.000
  J15                  JUNCTION        0.67          0.850        0.000
  J16                  JUNCTION        0.67          0.850        0.000
  J17                  JUNCTION        0.67          0.850        0.000
  J18                  JUNCTION        0.67          0.850        0.000
  J20                  JUNCTION        0.67          0.850        0.000
  J21                  JUNCTION        0.67          0.850        0.000
  J22                  JUNCTION        0.67          0.850        0.000
  J23                  JUNCTION        0.67          0.850        0.000
  J24                  JUNCTION        0.67          0.850        0.000
  J26                  JUNCTION        0.67          0.850        0.000
  J27                  JUNCTION        0.67          0.850        0.000
  J29                  JUNCTION        0.67          0.850        0.000
  J30                  JUNCTION        0.67          0.850        0.000
  J31                  JUNCTION        0.67          0.850        0.000
  J33                  JUNCTION        0.67          0.850        0.000
  J32                  JUNCTION        0.67          0.850        0.000
  J28                  JUNCTION        0.67          0.850        0.000
  
  
  *********************
  Node Flooding Summary
  *********************
  
  Flooding refers to all water that overflows a node, whether it ponds or not.
  --------------------------------------------------------------------------
                                                             Total   Maximum
                                 Maximum   Time of Max       Flood    Ponded
                        Hours       Rate    Occurrence      Volume     Depth
  Node                 Flooded       CMS   days hr:min    10^6 ltr    Meters
  --------------------------------------------------------------------------
  J7                      0.67    40.504      0  00:20      54.679     0.000
  J13                     0.67     3.863      0  00:10       4.970     0.000
  J19                     0.67   175.769      0  00:10     217.485     0.000
  J25                     0.67    19.579      0  00:20      26.236     0.000
  J1                      0.67    15.374      0  00:05      19.649     0.000
  J2                      0.67    10.137      0  00:10      12.531     0.000
  J3                      0.67    17.975      0  00:05       7.689     0.000
  J4                      0.67    32.761      0  00:10      40.011     0.000
  J5                      0.67    25.175      0  00:10      29.992     0.000
  J6                      0.67    11.943      0  00:10      15.190     0.000
  J8                      0.67    18.615      0  00:10      23.792     0.000
  J9                      0.67     7.590      0  00:10       9.548     0.000
  J10                     0.67    11.197      0  00:10      13.901     0.000
  J11                     0.67    12.947      0  00:10      16.344     0.000
  J12                     0.67    13.624      0  00:10      17.236     0.000
  J14                     0.67    12.031      0  00:10      15.377     0.000
  J15                     0.67    16.639      0  00:10      21.206     0.000
  J16                     0.67    10.572      0  00:10      13.525     0.000
  J17                     0.67     8.459      0  00:05       5.156     0.000
  J18                     0.67     3.918      0  00:05       2.645     0.000
  J20                     0.67    33.417      0  00:10      42.913     0.000
  J21                     0.67    11.105      0  00:05      14.193     0.000
  J22                     0.67    21.682      0  00:10      27.637     0.000
  J23                     0.67    11.564      0  00:10      14.687     0.000
  J24                     0.67     5.044      0  00:05       4.255     0.000
  J26                     0.67     9.809      0  00:10      12.537     0.000
  J27                     0.67     8.877      0  00:10      11.376     0.000
  J29                     0.67    13.646      0  00:10      17.159     0.000
  J30                     0.67    17.891      0  00:05       7.204     0.000
  J31                     0.67    37.194      0  00:20      49.233     0.000
  J33                     0.67    13.883      0  00:10      17.772     0.000
  J32                     0.67     5.898      0  00:10       7.403     0.000
  J28                     0.67    10.614      0  00:09      13.332     0.000
  
  
  ***********************
  Outfall Loading Summary
  ***********************
  
  -----------------------------------------------------------
                         Flow       Avg       Max       Total
                         Freq      Flow      Flow      Volume
  Outfall Node           Pcnt       CMS       CMS    10^6 ltr
  -----------------------------------------------------------
  OF                   100.00     7.312     7.967      16.641
  -----------------------------------------------------------
  System               100.00     7.312     7.967      16.641
  
  
  ********************
  Link Flow Summary
  ********************
  
  -----------------------------------------------------------------------------
                                 Maximum  Time of Max   Maximum    Max/    Max/
                                  |Flow|   Occurrence   |Veloc|    Full    Full
  Link                 Type          CMS  days hr:min     m/sec    Flow   Depth
  -----------------------------------------------------------------------------
  P1                   PUMP        0.000     0  00:00                          
  C23                  CONDUIT     0.000     0  00:00      0.00    0.00    1.00
  C24                  CONDUIT     0.814     0  00:05      0.38    7.05    1.00
  C25                  CONDUIT     0.000     0  00:00      0.00    0.00    1.00
  C26                  CONDUIT     0.392     0  00:05      0.18    3.07    1.00
  C27                  CONDUIT     0.000     0  00:00      0.00    0.00    1.00
  C28                  CONDUIT     1.819     0  00:05      0.85   12.54    1.00
  C29                  CONDUIT     0.000     0  00:00      0.00    0.00    1.00
  C30                  CONDUIT     0.790     0  00:05      0.37    6.94    1.00
  C31                  CONDUIT     0.321     0  00:05      0.15    2.81    1.00
  C32                  CONDUIT     4.822     0  00:05      2.25   31.17    1.00
  C33                  CONDUIT    12.277     0  00:05      5.74   71.83    1.00
  C34                  CONDUIT     0.962     0  00:05      0.45    7.66    1.00
  C35                  CONDUIT     0.000     0  00:05      0.00    0.00    1.00
  C36                  CONDUIT     0.176     0  00:05      0.08    1.66    1.00
  C37                  CONDUIT     1.827     0  00:05      0.85   12.54    1.00
  C38                  CONDUIT     1.279     0  00:05      0.60    8.92    1.00
  C39                  CONDUIT     2.359     0  00:05      1.10   14.95    1.00
  C40                  CONDUIT     0.000     0  00:00      0.00    0.00    1.00
  C41                  CONDUIT     0.000     0  00:00      0.00    0.00    1.00
  C43                  CONDUIT     0.000     0  00:00      0.00    0.00    1.00
  C44                  CONDUIT     0.815     0  00:05      0.38    6.95    1.00
  C45                  CONDUIT    10.912     0  00:05      5.10   93.63    1.00
  C46                  CONDUIT     5.792     0  00:05      2.71   48.00    1.00
  C48                  CONDUIT     0.000     0  00:05      0.00    0.00    1.00
  C42                  CONDUIT     3.080     0  00:05      1.44   24.42    1.00
  C50                  CONDUIT     0.654     0  00:05      0.31    6.31    1.00
  C49                  CONDUIT     0.744     0  00:05      0.35    6.49    1.00
  C01                  CONDUIT     0.000     0  00:00      0.00    0.00    1.00
  C02                  CONDUIT     0.000     0  00:00      0.00    0.00    1.00
  C03                  CONDUIT     0.801     0  00:05      0.37    6.40    1.00
  C04                  CONDUIT     0.000     0  00:05      0.00    0.00    1.00
  C05                  CONDUIT     0.581     0  00:05      0.27    4.63    1.00
  C06                  CONDUIT     0.000     0  00:00      0.00    0.00    1.00
  C07                  CONDUIT     0.000     0  00:00      0.00    0.00    1.00
  C08                  CONDUIT     0.000     0  00:00      0.00    0.00    1.00
  C09                  CONDUIT     0.801     0  00:05      0.37    7.01    1.00
  C10                  CONDUIT     0.927     0  00:05      0.43    7.39    1.00
  C11                  CONDUIT     0.000     0  00:00      0.00    0.00    1.00
  C12                  CONDUIT     2.667     0  00:05      1.25   22.97    1.00
  C13                  CONDUIT     1.227     0  00:05      0.57   10.68    1.00
  C14                  CONDUIT     3.130     0  00:05      1.46   24.87    1.00
  C15                  CONDUIT     0.285     0  00:05      0.13    2.27    1.00
  C16                  CONDUIT     3.026     0  00:05      1.42   26.56    1.00
  C17                  CONDUIT     2.599     0  00:05      1.22   22.93    1.00
  C18                  CONDUIT     0.000     0  00:00      0.00    0.00    1.00
  C19                  CONDUIT     0.000     0  00:00      0.00    0.00    1.00
  C20                  CONDUIT     2.649     0  00:05      1.24   23.59    1.00
  C21                  CONDUIT     0.000     0  00:05      0.00    0.00    1.00
  C22                  CONDUIT     0.175     0  00:05      0.08    1.38    1.00
  C47                  CONDUIT     0.699     0  00:05      0.33    7.19    1.00
  Cout                 CONDUIT     7.967     0  00:05      3.85   62.91    0.93
  
  
  ***************************
  Flow Classification Summary
  ***************************
  
  -------------------------------------------------------------------------------------
                      Adjusted    ---------- Fraction of Time in Flow Class ---------- 
                       /Actual         Up    Down  Sub   Sup   Up    Down  Norm  Inlet 
  Conduit               Length    Dry  Dry   Dry   Crit  Crit  Crit  Crit  Ltd   Ctrl  
  -------------------------------------------------------------------------------------
  C23                     1.00   0.00  0.00  0.00  1.00  0.00  0.00  0.00  0.00  0.00
  C24                     1.00   0.00  0.00  0.00  1.00  0.00  0.00  0.00  0.00  0.00
  C25                     1.00   0.00  0.00  0.00  1.00  0.00  0.00  0.00  0.00  0.00
  C26                     1.00   0.00  0.00  0.00  1.00  0.00  0.00  0.00  0.00  0.00
  C27                     1.00   0.00  0.00  0.00  1.00  0.00  0.00  0.00  0.00  0.00
  C28                     1.00   0.00  0.00  0.00  1.00  0.00  0.00  0.00  0.00  0.00
  C29                     1.00   0.00  0.00  0.00  1.00  0.00  0.00  0.00  0.00  0.00
  C30                     1.00   0.00  0.00  0.00  1.00  0.00  0.00  0.00  0.00  0.00
  C31                     1.00   0.00  0.00  0.00  1.00  0.00  0.00  0.00  0.00  0.00
  C32                     1.00   0.00  0.00  0.00  1.00  0.00  0.00  0.00  0.00  0.00
  C33                     1.00   0.00  0.00  0.00  1.00  0.00  0.00  0.00  0.00  0.00
  C34                     1.00   0.00  0.00  0.00  1.00  0.00  0.00  0.00  0.00  0.00
  C35                     1.00   0.00  0.00  0.00  1.00  0.00  0.00  0.00  0.00  0.00
  C36                     1.00   0.00  0.00  0.00  1.00  0.00  0.00  0.00  0.00  0.00
  C37                     1.00   0.00  0.00  0.00  1.00  0.00  0.00  0.00  0.00  0.00
  C38                     1.00   0.00  0.00  0.00  1.00  0.00  0.00  0.00  0.00  0.00
  C39                     1.00   0.00  0.00  0.00  1.00  0.00  0.00  0.00  0.00  0.00
  C40                     1.00   0.00  0.00  0.00  1.00  0.00  0.00  0.00  0.00  0.00
  C41                     1.00   0.00  0.00  0.00  1.00  0.00  0.00  0.00  0.00  0.00
  C43                     1.00   0.00  0.00  0.00  1.00  0.00  0.00  0.00  0.00  0.00
  C44                     1.00   0.00  0.00  0.00  1.00  0.00  0.00  0.00  0.00  0.00
  C45                     1.00   0.00  0.00  0.00  1.00  0.00  0.00  0.00  0.00  0.00
  C46                     1.00   0.00  0.00  0.00  1.00  0.00  0.00  0.00  0.00  0.00
  C48                     1.00   0.00  0.00  0.00  1.00  0.00  0.00  0.00  0.00  0.00
  C42                     1.00   0.00  0.00  0.00  1.00  0.00  0.00  0.00  0.00  0.00
  C50                     1.00   0.00  0.00  0.00  1.00  0.00  0.00  0.00  0.00  0.00
  C49                     1.00   0.00  0.00  0.00  1.00  0.00  0.00  0.00  0.00  0.00
  C01                     1.00   0.00  0.00  0.00  1.00  0.00  0.00  0.00  0.00  0.00
  C02                     1.00   0.00  0.00  0.00  1.00  0.00  0.00  0.00  0.00  0.00
  C03                     1.00   0.00  0.00  0.00  1.00  0.00  0.00  0.00  0.00  0.00
  C04                     1.00   0.00  0.00  0.00  1.00  0.00  0.00  0.00  0.00  0.00
  C05                     1.00   0.00  0.00  0.00  1.00  0.00  0.00  0.00  0.00  0.00
  C06                     1.00   0.00  0.00  0.00  1.00  0.00  0.00  0.00  0.00  0.00
  C07                     1.00   0.00  0.00  0.00  1.00  0.00  0.00  0.00  0.00  0.00
  C08                     1.00   0.00  0.00  0.00  1.00  0.00  0.00  0.00  0.00  0.00
  C09                     1.00   0.00  0.00  0.00  1.00  0.00  0.00  0.00  0.00  0.00
  C10                     1.00   0.00  0.00  0.00  1.00  0.00  0.00  0.00  0.00  0.00
  C11                     1.00   0.00  0.00  0.00  1.00  0.00  0.00  0.00  0.00  0.00
  C12                     1.00   0.00  0.00  0.00  1.00  0.00  0.00  0.00  0.00  0.00
  C13                     1.00   0.00  0.00  0.00  1.00  0.00  0.00  0.00  0.00  0.00
  C14                     1.00   0.00  0.00  0.00  1.00  0.00  0.00  0.00  0.00  0.00
  C15                     1.00   0.00  0.00  0.00  1.00  0.00  0.00  0.00  0.00  0.00
  C16                     1.00   0.00  0.00  0.00  1.00  0.00  0.00  0.00  0.00  0.00
  C17                     1.00   0.00  0.00  0.00  1.00  0.00  0.00  0.00  0.00  0.00
  C18                     1.00   0.00  0.00  0.00  1.00  0.00  0.00  0.00  0.00  0.00
  C19                     1.00   0.00  0.00  0.00  1.00  0.00  0.00  0.00  0.00  0.00
  C20                     1.00   0.00  0.00  0.00  1.00  0.00  0.00  0.00  0.00  0.00
  C21                     1.00   0.00  0.00  0.00  1.00  0.00  0.00  0.00  0.00  0.00
  C22                     1.00   0.00  0.00  0.00  1.00  0.00  0.00  0.00  0.00  0.00
  C47                     1.00   0.00  0.00  0.00  1.00  0.00  0.00  0.00  0.00  0.00
  Cout                    1.00   0.00  0.00  0.00  1.00  0.00  0.00  0.00  0.00  0.00
  
  
  *************************
  Conduit Surcharge Summary
  *************************
  
  ----------------------------------------------------------------------------
                                                           Hours        Hours 
                         --------- Hours Full --------   Above Full   Capacity
  Conduit                Both Ends  Upstream  Dnstream   Normal Flow   Limited
  ----------------------------------------------------------------------------
  C23                         0.67      0.67      0.67      0.01         0.01
  C24                         0.67      0.67      0.67      0.67         0.01
  C25                         0.67      0.67      0.67      0.01         0.01
  C26                         0.67      0.67      0.67      0.66         0.01
  C27                         0.67      0.67      0.67      0.01         0.01
  C28                         0.67      0.67      0.67      0.67         0.01
  C29                         0.67      0.67      0.67      0.01         0.01
  C30                         0.67      0.67      0.67      0.67         0.01
  C31                         0.67      0.67      0.67      0.67         0.01
  C32                         0.67      0.67      0.67      0.67         0.01
  C33                         0.67      0.67      0.67      0.67         0.01
  C34                         0.67      0.67      0.67      0.67         0.01
  C35                         0.67      0.67      0.67      0.01         0.01
  C36                         0.67      0.67      0.67      0.49         0.01
  C37                         0.67      0.67      0.67      0.67         0.01
  C38                         0.67      0.67      0.67      0.67         0.01
  C39                         0.67      0.67      0.67      0.67         0.01
  C40                         0.67      0.67      0.67      0.01         0.01
  C41                         0.67      0.67      0.67      0.01         0.01
  C43                         0.67      0.67      0.67      0.01         0.01
  C44                         0.67      0.67      0.67      0.67         0.01
  C45                         0.67      0.67      0.67      0.67         0.01
  C46                         0.67      0.67      0.67      0.67         0.01
  C48                         0.67      0.67      0.67      0.01         0.01
  C42                         0.67      0.67      0.67      0.67         0.01
  C50                         0.67      0.67      0.67      0.67         0.01
  C49                         0.67      0.67      0.67      0.67         0.01
  C01                         0.67      0.67      0.67      0.01         0.01
  C02                         0.67      0.67      0.67      0.01         0.01
  C03                         0.67      0.67      0.67      0.67         0.01
  C04                         0.67      0.67      0.67      0.01         0.01
  C05                         0.67      0.67      0.67      0.67         0.01
  C06                         0.67      0.67      0.67      0.01         0.01
  C07                         0.67      0.67      0.67      0.01         0.01
  C08                         0.67      0.67      0.67      0.01         0.01
  C09                         0.67      0.67      0.67      0.67         0.01
  C10                         0.67      0.67      0.67      0.67         0.01
  C11                         0.67      0.67      0.67      0.01         0.01
  C12                         0.67      0.67      0.67      0.67         0.01
  C13                         0.67      0.67      0.67      0.67         0.01
  C14                         0.67      0.67      0.67      0.67         0.01
  C15                         0.67      0.67      0.67      0.57         0.01
  C16                         0.67      0.67      0.67      0.67         0.01
  C17                         0.67      0.67      0.67      0.67         0.01
  C18                         0.67      0.67      0.67      0.01         0.01
  C19                         0.67      0.67      0.67      0.01         0.01
  C20                         0.67      0.67      0.67      0.67         0.01
  C21                         0.67      0.67      0.67      0.01         0.01
  C22                         0.67      0.67      0.67      0.32         0.01
  C47                         0.67      0.67      0.67      0.67         0.01
  Cout                        0.01      0.67      0.01      0.67         0.01
  
  
  ***************
  Pumping Summary
  ***************
  
  ---------------------------------------------------------------------------------------------------------
                                                  Min       Avg       Max     Total     Power    % Time Off
                        Percent   Number of      Flow      Flow      Flow    Volume     Usage    Pump Curve
  Pump                 Utilized   Start-Ups       CMS       CMS       CMS  10^6 ltr     Kw-hr    Low   High
  ---------------------------------------------------------------------------------------------------------
  P1                       0.00           0      0.00      0.00      0.00     0.000      0.00    0.0    0.0
  

  Analysis begun on:  Thu Nov 28 15:16:01 2024
  Analysis ended on:  Thu Nov 28 15:16:01 2024
  Total elapsed time: < 1 sec