
  EPA STORM WATER MANAGEMENT MODEL - VERSION 5.2 (Build 5.2.4)
  PYSWMM TOOLKIT API - VERSION v1.0 (2023-11-27)
  ------------------------------------------------------------

  WARNING 04: minimum elevation drop used for Conduit C23
  WARNING 04: minimum elevation drop used for Conduit C24
  WARNING 04: minimum elevation drop used for Conduit C25
  WARNING 04: minimum elevation drop used for Conduit C26
  WARNING 04: minimum elevation drop used for Conduit C27
  WARNING 04: minimum elevation drop used for Conduit C28
  WARNING 04: minimum elevation drop used for Conduit C29
  WARNING 04: minimum elevation drop used for Conduit C30
  WARNING 04: minimum elevation drop used for Conduit C31
  WARNING 04: minimum elevation drop used for Conduit C32
  WARNING 04: minimum elevation drop used for Conduit C33
  WARNING 04: minimum elevation drop used for Conduit C34
  WARNING 04: minimum elevation drop used for Conduit C35
  WARNING 04: minimum elevation drop used for Conduit C36
  WARNING 04: minimum elevation drop used for Conduit C37
  WARNING 04: minimum elevation drop used for Conduit C38
  WARNING 04: minimum elevation drop used for Conduit C39
  WARNING 04: minimum elevation drop used for Conduit C40
  WARNING 04: minimum elevation drop used for Conduit C41
  WARNING 04: minimum elevation drop used for Conduit C43
  WARNING 04: minimum elevation drop used for Conduit C44
  WARNING 04: minimum elevation drop used for Conduit C45
  WARNING 04: minimum elevation drop used for Conduit C46
  WARNING 04: minimum elevation drop used for Conduit C48
  WARNING 04: minimum elevation drop used for Conduit C42
  WARNING 04: minimum elevation drop used for Conduit C50
  WARNING 04: minimum elevation drop used for Conduit C49
  WARNING 04: minimum elevation drop used for Conduit C01
  WARNING 04: minimum elevation drop used for Conduit C02
  WARNING 04: minimum elevation drop used for Conduit C03
  WARNING 04: minimum elevation drop used for Conduit C04
  WARNING 04: minimum elevation drop used for Conduit C05
  WARNING 04: minimum elevation drop used for Conduit C06
  WARNING 04: minimum elevation drop used for Conduit C07
  WARNING 04: minimum elevation drop used for Conduit C08
  WARNING 04: minimum elevation drop used for Conduit C09
  WARNING 04: minimum elevation drop used for Conduit C10
  WARNING 04: minimum elevation drop used for Conduit C11
  WARNING 04: minimum elevation drop used for Conduit C12
  WARNING 04: minimum elevation drop used for Conduit C13
  WARNING 04: minimum elevation drop used for Conduit C14
  WARNING 04: minimum elevation drop used for Conduit C15
  WARNING 04: minimum elevation drop used for Conduit C16
  WARNING 04: minimum elevation drop used for Conduit C17
  WARNING 04: minimum elevation drop used for Conduit C18
  WARNING 04: minimum elevation drop used for Conduit C19
  WARNING 04: minimum elevation drop used for Conduit C20
  WARNING 04: minimum elevation drop used for Conduit C21
  WARNING 04: minimum elevation drop used for Conduit C22
  WARNING 04: minimum elevation drop used for Conduit C47
  WARNING 04: minimum elevation drop used for Conduit Cout
  
  ****************
  Analysis Options
  ****************
  Flow Units ............... CMS
  Process Models:
    Rainfall/Runoff ........ YES
    RDII ................... NO
    Snowmelt ............... NO
    Groundwater ............ NO
    Flow Routing ........... YES
    Ponding Allowed ........ NO
    Water Quality .......... NO
  Infiltration Method ...... HORTON
  Flow Routing Method ...... DYNWAVE
  Surcharge Method ......... EXTRAN
  Starting Date ............ 09/09/2022 12:00:00
  Ending Date .............. 09/09/2022 12:50:00
  Antecedent Dry Days ...... 0.0
  Report Time Step ......... 00:10:00
  Wet Time Step ............ 00:05:00
  Dry Time Step ............ 01:00:00
  Routing Time Step ........ 300.00 sec
  Variable Time Step ....... YES
  Maximum Trials ........... 8
  Number of Threads ........ 1
  Head Tolerance ........... 0.001524 m
  
  
  *********************
  Rainfall File Summary
  *********************
  Station    First        Last         Recording   Periods    Periods    Periods
  ID         Date         Date         Frequency  w/Precip    Missing    Malfunc.
  -------------------------------------------------------------------------------
  132        09/09/2022   09/09/2022      10 min         6          0          0

  
  
  **************************        Volume         Depth
  Runoff Quantity Continuity     hectare-m            mm
  **************************     ---------       -------
  Total Precipitation ......       144.736      1447.419
  Evaporation Loss .........         0.000         0.000
  Infiltration Loss ........         0.000         0.000
  Surface Runoff ...........       137.515      1375.208
  Final Storage ............         9.133        91.332
  Continuity Error (%) .....        -1.321
  
  
  **************************        Volume        Volume
  Flow Routing Continuity        hectare-m      10^6 ltr
  **************************     ---------     ---------
  Dry Weather Inflow .......         0.000         0.000
  Wet Weather Inflow .......       132.258      1322.594
  Groundwater Inflow .......         0.000         0.000
  RDII Inflow ..............         0.000         0.000
  External Inflow ..........         0.000         0.000
  External Outflow .........         2.104        21.044
  Flooding Loss ............       126.473      1264.747
  Evaporation Loss .........         0.000         0.000
  Exfiltration Loss ........         0.000         0.000
  Initial Stored Volume ....         0.046         0.463
  Final Stored Volume ......         1.883        18.831
  Continuity Error (%) .....         1.393
  
  
  *************************
  Highest Continuity Errors
  *************************
  Node J30 (17.49%)
  Node J3 (13.78%)
  Node J24 (10.44%)
  Node J17 (10.39%)
  Node J18 (7.65%)
  
  
  ***************************
  Time-Step Critical Elements
  ***************************
  Link Cout (98.98%)
  
  
  ********************************
  Highest Flow Instability Indexes
  ********************************
  Link C24 (2)
  Link C31 (2)
  Link C33 (2)
  Link C34 (2)
  Link C36 (2)
  
  
  *********************************
  Most Frequent Nonconverging Nodes
  *********************************
  Convergence obtained at all time steps.
  
  
  *************************
  Routing Time Step Summary
  *************************
  Minimum Time Step           :     4.91 sec
  Average Time Step           :    15.30 sec
  Maximum Time Step           :   300.00 sec
  % of Time in Steady State   :     0.00
  Average Iterations per Step :     2.02
  % of Steps Not Converging   :     0.00
  Time Step Frequencies       :
     300.000 - 83.462 sec      :     0.51 %
     83.462 - 23.220 sec      :     0.00 %
     23.220 -  6.460 sec      :    98.46 %
      6.460 -  1.797 sec      :     1.03 %
      1.797 -  0.500 sec      :     0.00 %
  
  
  ***************************
  Subcatchment Runoff Summary
  ***************************
  
  ------------------------------------------------------------------------------------------------------------------------------
                            Total      Total      Total      Total     Imperv       Perv      Total       Total     Peak  Runoff
                           Precip      Runon       Evap      Infil     Runoff     Runoff     Runoff      Runoff   Runoff   Coeff
  Subcatchment                 mm         mm         mm         mm         mm         mm         mm    10^6 ltr      CMS
  ------------------------------------------------------------------------------------------------------------------------------
  S1                      1447.42       0.00       0.00       0.00      14.33    1433.09    1447.42      365.13   272.35   1.000
  S2                      1447.42       0.00       0.00       0.00      13.17    1439.23    1452.40       11.29     8.39   1.003
  S3                      1447.42       0.00       0.00       0.00      13.17    1434.25    1447.42        3.00     2.23   1.000
  S4                      1447.42       0.00       0.00       0.00      13.17    1434.25    1447.42        2.97     2.21   1.000
  S5                      1447.42       0.00       0.00       0.00      13.17    1434.25    1447.42        4.33     3.23   1.000
  S6                      1447.42       0.00       0.00       0.00      13.17    1434.25    1447.42       11.93     8.90   1.000
  S7                      1447.42       0.00       0.00       0.00      13.17    1434.25    1447.42        2.24     1.67   1.000
  S8                      1447.42       0.00       0.00       0.00      13.17    1434.25    1447.42        7.05     5.26   1.000
  S9                      1447.42       0.00       0.00       0.00      13.17    1434.25    1447.42        8.71     6.50   1.000
  S10                     1447.42       0.00       0.00       0.00       0.00    1434.25    1434.25        2.02     1.51   0.991
  S11                     1447.42       0.00       0.00       0.00      13.17    1410.46    1423.63       20.83    15.74   0.984
  S12                     1447.42       0.00       0.00       0.00      13.17    1434.25    1447.42       12.56     9.37   1.000
  S13                     1447.42       0.00       0.00       0.00       0.00    1434.25    1434.25       12.11     9.03   0.991
  S14                     1447.42       0.00       0.00       0.00      12.16    1435.26    1447.42       11.62     8.67   1.000
  S15                     1447.42       0.00       0.00       0.00      12.16    1435.26    1447.42       10.86     8.10   1.000
  S16                     1447.42       0.00       0.00       0.00      11.15    1441.56    1452.70       25.65    19.07   1.004
  S17                     1447.42       0.00       0.00       0.00      11.15    1347.41    1358.56       46.26    35.62   0.939
  S18                     1447.42       0.00       0.00       0.00      11.15    1436.41    1447.55        1.87     1.39   1.000
  S19                     1447.42       0.00       0.00       0.00      11.15       0.00      11.15        0.03     0.02   0.008
  S20                     1447.42       0.00       0.00       0.00      11.15    1436.41    1447.56        1.48     1.10   1.000
  S21                     1447.42       0.00       0.00       0.00      11.15    1430.88    1442.03       23.91    17.89   0.996
  S22                     1447.42       0.00       0.00       0.00      11.15    1436.21    1447.35        0.48     0.36   1.000
  S23                     1447.42       0.00       0.00       0.00      11.14    1436.27    1447.42        0.56     0.42   1.000
  S24                     1447.42       0.00       0.00       0.00      11.14    1436.27    1447.42        0.71     0.53   1.000
  S25                     1447.42       0.00       0.00       0.00      11.15    1436.27    1447.42        0.85     0.64   1.000
  S26                     1447.42       0.00       0.00       0.00      11.14    1436.27    1447.42        1.00     0.74   1.000
  S27                     1447.42       0.00       0.00       0.00      11.15    1438.37    1449.52       12.05     8.97   1.001
  S28                     1447.42       0.00       0.00       0.00      11.15    1433.18    1444.32       12.83     9.58   0.998
  S29                     1447.42       0.00       0.00       0.00      11.15    1436.31    1447.45        1.33     0.99   1.000
  S30                     1447.42       0.00       0.00       0.00      11.15    1317.11    1328.25       84.61    65.17   0.918
  S31                     1447.42       0.00       0.00       0.00      11.58    1435.84    1447.42       19.61    14.63   1.000
  S32                     1447.42       0.00       0.00       0.00      11.58    1435.84    1447.42        6.04     4.50   1.000
  S33                     1447.42       0.00       0.00       0.00      13.61    1433.81    1447.42        4.50     3.36   1.000
  S34                     1447.42       0.00       0.00       0.00      13.60    1433.81    1447.42        4.76     3.55   1.000
  S35                     1447.42       0.00       0.00       0.00      13.17    1434.25    1447.42        5.82     4.34   1.000
  S36                     1447.42       0.00       0.00       0.00      13.17    1434.25    1447.42        2.39     1.78   1.000
  S37                     1447.42       0.00       0.00       0.00      13.17    1434.25    1447.42        5.21     3.89   1.000
  S38                     1447.42       0.00       0.00       0.00      13.17    1434.25    1447.42        0.23     0.17   1.000
  S39                     1447.42       0.00       0.00       0.00      13.17    1434.25    1447.42        5.93     4.43   1.000
  S40                     1447.42       0.00       0.00       0.00      13.17    1434.25    1447.42        2.04     1.52   1.000
  S41                     1447.42       0.00       0.00       0.00      13.17    1434.25    1447.42        3.29     2.45   1.000
  S42                     1447.42       0.00       0.00       0.00      13.17    1434.25    1447.42        4.57     3.41   1.000
  S43                     1447.42       0.00       0.00       0.00      13.17    1434.25    1447.42       10.42     7.77   1.000
  S44                     1447.42       0.00       0.00       0.00      13.17    1434.25    1447.42        7.56     5.64   1.000
  S45                     1447.42       0.00       0.00       0.00      13.17    1434.25    1447.42        0.77     0.57   1.000
  S46                     1447.42       0.00       0.00       0.00      13.17    1434.25    1447.42        7.01     5.23   1.000
  S47                     1447.42       0.00       0.00       0.00      13.17    1434.25    1447.42       14.16    10.56   1.000
  S48                     1447.42       0.00       0.00       0.00      13.17    1434.25    1447.42       16.36    12.20   1.000
  S49                     1447.42       0.00       0.00       0.00      13.17    1434.25    1447.42        9.94     7.42   1.000
  S50                     1447.42       0.00       0.00       0.00      13.17    1434.25    1447.42        8.19     6.11   1.000
  S51                     1447.42       0.00       0.00       0.00      13.17    1434.25    1447.42        4.83     3.61   1.000
  S52                     1447.42       0.00       0.00       0.00      13.17    1434.25    1447.42       12.81     9.55   1.000
  S53                     1447.42       0.00       0.00       0.00      13.17    1432.05    1445.22       17.60    13.14   0.998
  S54                     1447.42       0.00       0.00       0.00      13.17    1440.24    1453.41        6.64     4.93   1.004
  S55                     1447.42       0.00       0.00       0.00      13.17    1434.25    1447.42        0.55     0.41   1.000
  S56                     1447.42       0.00       0.00       0.00      13.17    1434.19    1447.36        0.55     0.41   1.000
  S57                     1447.42       0.00       0.00       0.00      13.17    1434.25    1447.42        7.48     5.58   1.000
  S58                     1447.42       0.00       0.00       0.00      13.17    1434.25    1447.42        9.61     7.17   1.000
  S59                     1447.42       0.00       0.00       0.00      13.17    1434.25    1447.42        9.34     6.96   1.000
  S60                     1447.42       0.00       0.00       0.00      11.15    1440.56    1451.71        5.71     4.24   1.003
  S61                     1447.42       0.00       0.00       0.00      11.15       0.00      11.15        0.04     0.03   0.008
  S62                     1447.42       0.00       0.00       0.00      11.15    1295.61    1306.76       70.03    53.83   0.903
  S63                     1447.42       0.00       0.00       0.00      11.14    1436.27    1447.42       13.61    10.15   1.000
  S64                     1447.42       0.00       0.00       0.00      11.14    1436.27    1447.42       36.84    27.48   1.000
  S65                     1447.42       0.00       0.00       0.00      11.14    1436.27    1447.42        5.88     4.38   1.000
  S66                     1447.42       0.00       0.00       0.00      11.14    1436.27    1447.42        9.48     7.07   1.000
  S67                     1447.42       0.00       0.00       0.00      11.14    1436.27    1447.42       17.72    13.21   1.000
  S68                     1447.42       0.00       0.00       0.00      11.14    1436.27    1447.42       20.77    15.49   1.000
  S69                     1447.42       0.00       0.00       0.00      11.15       0.00      11.15        0.28     0.21   0.008
  S70                     1447.42       0.00       0.00       0.00      11.15    1429.79    1440.93       37.71    28.23   0.996
  S71                     1447.42       0.00       0.00       0.00      13.17    1434.25    1447.42       21.29    15.88   1.000
  S72                     1447.42       0.00       0.00       0.00      11.15    1442.34    1453.49        7.21     5.35   1.004
  S73                     1447.42       0.00       0.00       0.00      11.15    1436.27    1447.42       30.34    22.63   1.000
  S74                     1447.42       0.00       0.00       0.00      11.15       0.00      11.15        0.07     0.05   0.008
  S75                     1447.42       0.00       0.00       0.00      11.14    1436.27    1447.42        0.97     0.72   1.000
  S76                     1447.42       0.00       0.00       0.00      11.14    1436.27    1447.42       19.12    14.26   1.000
  S77                     1447.42       0.00       0.00       0.00      11.14    1436.27    1447.42       15.47    11.54   1.000
  S78                     1447.42       0.00       0.00       0.00      11.14    1436.27    1447.42       11.22     8.37   1.000
  S79                     1447.42       0.00       0.00       0.00      13.17    1434.25    1447.42        9.83     7.33   1.000
  S80                     1447.42       0.00       0.00       0.00      11.15    1438.19    1449.34        4.00     2.98   1.001
  S81                     1447.42       0.00       0.00       0.00      11.14    1436.27    1447.42       16.37    12.21   1.000
  S82                     1447.42       0.00       0.00       0.00      11.14    1436.27    1447.42       15.98    11.92   1.000
  S83                     1447.42       0.00       0.00       0.00      11.14    1436.27    1447.42       10.28     7.67   1.000
  S84                     1447.42       0.00       0.00       0.00      13.17    1434.25    1447.42        6.72     5.01   1.000
  S85                     1447.42       0.00       0.00       0.00      13.17    1436.30    1449.47       17.92    13.34   1.001
  S86                     1447.42       0.00       0.00       0.00       0.00    1434.25    1434.25       16.59    12.38   0.991
  S87                     1447.42       0.00       0.00       0.00      13.17    1434.25    1447.42       17.98    13.41   1.000
  S88                     1447.42       0.00       0.00       0.00      13.17    1434.25    1447.42        3.24     2.42   1.000
  S89                     1447.42       0.00       0.00       0.00      13.17    1434.25    1447.42       14.63    10.91   1.000
  S90                     1447.42       0.00       0.00       0.00       0.00    1434.25    1434.25        7.04     5.25   0.991
  S91                     1447.42       0.00       0.00       0.00      13.17    1434.25    1447.42        2.39     1.78   1.000
  
  
  ******************
  Node Depth Summary
  ******************
  
  ---------------------------------------------------------------------------------
                                 Average  Maximum  Maximum  Time of Max    Reported
                                   Depth    Depth      HGL   Occurrence   Max Depth
  Node                 Type       Meters   Meters   Meters  days hr:min      Meters
  ---------------------------------------------------------------------------------
  J7                   JUNCTION     2.49     2.50     2.50     0  00:05        2.50
  J13                  JUNCTION     2.49     2.50     2.50     0  00:05        2.50
  J19                  JUNCTION     2.49     2.50     2.50     0  00:05        2.50
  J25                  JUNCTION     2.49     2.50     2.50     0  00:05        2.50
  J1                   JUNCTION     2.49     2.50     2.50     0  00:05        2.50
  J2                   JUNCTION     2.49     2.50     2.50     0  00:05        2.50
  J3                   JUNCTION     2.49     2.50     2.50     0  00:05        2.50
  J4                   JUNCTION     2.49     2.50     2.50     0  00:05        2.50
  J5                   JUNCTION     2.49     2.50     2.50     0  00:05        2.50
  J6                   JUNCTION     2.49     2.50     2.50     0  00:05        2.50
  J8                   JUNCTION     2.49     2.50     2.50     0  00:05        2.50
  J9                   JUNCTION     2.49     2.50     2.50     0  00:05        2.50
  J10                  JUNCTION     2.49     2.50     2.50     0  00:05        2.50
  J11                  JUNCTION     2.49     2.50     2.50     0  00:05        2.50
  J12                  JUNCTION     2.49     2.50     2.50     0  00:05        2.50
  J14                  JUNCTION     2.49     2.50     2.50     0  00:05        2.50
  J15                  JUNCTION     2.49     2.50     2.50     0  00:05        2.50
  J16                  JUNCTION     2.49     2.50     2.50     0  00:05        2.50
  J17                  JUNCTION     2.49     2.50     2.50     0  00:05        2.50
  J18                  JUNCTION     2.49     2.50     2.50     0  00:05        2.50
  J20                  JUNCTION     2.49     2.50     2.50     0  00:05        2.50
  J21                  JUNCTION     2.49     2.50     2.50     0  00:05        2.50
  J22                  JUNCTION     2.49     2.50     2.50     0  00:05        2.50
  J23                  JUNCTION     2.49     2.50     2.50     0  00:05        2.50
  J24                  JUNCTION     2.49     2.50     2.50     0  00:05        2.50
  J26                  JUNCTION     2.49     2.50     2.50     0  00:05        2.50
  J27                  JUNCTION     2.49     2.50     2.50     0  00:05        2.50
  J29                  JUNCTION     2.49     2.50     2.50     0  00:05        2.50
  J30                  JUNCTION     2.49     2.50     2.50     0  00:05        2.50
  J31                  JUNCTION     2.49     2.50     2.50     0  00:05        2.50
  J33                  JUNCTION     2.49     2.50     2.50     0  00:05        2.50
  J32                  JUNCTION     2.49     2.50     2.50     0  00:05        2.50
  J28                  JUNCTION     2.49     2.50     2.50     0  00:05        2.50
  OF                   OUTFALL      1.36     1.41     1.41     0  00:05        1.37
  
  
  *******************
  Node Inflow Summary
  *******************
  
  -------------------------------------------------------------------------------------------------
                                  Maximum  Maximum                  Lateral       Total        Flow
                                  Lateral    Total  Time of Max      Inflow      Inflow     Balance
                                   Inflow   Inflow   Occurrence      Volume      Volume       Error
  Node                 Type           CMS      CMS  days hr:min    10^6 ltr    10^6 ltr     Percent
  -------------------------------------------------------------------------------------------------
  J7                   JUNCTION    71.717   71.717     0  00:30        90.2        90.2       1.059
  J13                  JUNCTION     6.159    6.159     0  00:30        7.97        7.97       3.105
  J19                  JUNCTION   291.892  291.892     0  00:30         377         377       3.031
  J25                  JUNCTION    35.619   35.840     0  00:30        44.4        45.6       1.697
  J1                   JUNCTION    24.502   24.502     0  00:25        31.6        31.6       3.160
  J2                   JUNCTION    18.408   18.545     0  00:25        23.7        24.2       2.148
  J3                   JUNCTION     0.820   13.656     0  00:05        1.06        7.11      15.986
  J4                   JUNCTION    53.301   53.764     0  00:25        68.8        70.5       2.607
  J5                   JUNCTION    44.070   44.070     0  00:30        56.8        56.8       1.514
  J6                   JUNCTION    19.282   19.282     0  00:30        24.9        24.9       3.044
  J8                   JUNCTION    29.668   29.668     0  00:25        38.3        38.3       3.219
  J9                   JUNCTION    13.342   13.342     0  00:30        17.2        17.2       2.095
  J10                  JUNCTION    19.908   19.908     0  00:25        25.7        25.7       2.552
  J11                  JUNCTION    21.388   21.800     0  00:25        27.6          29       2.585
  J12                  JUNCTION    22.629   23.007     0  00:25        29.2        30.4       2.669
  J14                  JUNCTION    19.174   19.174     0  00:30        24.7        24.7       3.219
  J15                  JUNCTION    27.439   27.439     0  00:30        35.4        35.4       2.820
  J16                  JUNCTION    15.881   16.614     0  00:25        20.5        23.3       2.740
  J17                  JUNCTION     0.207    7.190     0  00:05       0.266        4.98      11.600
  J18                  JUNCTION     0.723    3.744     0  00:05       0.933        3.34       8.284
  J20                  JUNCTION    53.591   53.591     0  00:30        68.8        68.8       2.999
  J21                  JUNCTION    17.698   17.698     0  00:30        22.8        22.8       3.219
  J22                  JUNCTION    36.330   36.330     0  00:30        46.7        46.7       2.600
  J23                  JUNCTION    19.065   19.259     0  00:30        24.7        25.5       2.410
  J24                  JUNCTION     2.514    9.361     0  00:05        3.24        6.48      11.654
  J26                  JUNCTION    15.633   15.633     0  00:25        20.2        20.2       3.219
  J27                  JUNCTION    13.711   14.216     0  00:25        17.7        19.8       2.920
  J29                  JUNCTION    22.488   22.871     0  00:25          29        30.3       2.744
  J30                  JUNCTION     0.000   15.218     0  00:05           0        6.23      21.196
  J31                  JUNCTION    65.172   65.358     0  00:30        81.2          82       1.243
  J33                  JUNCTION    22.127   22.127     0  00:30        28.6        28.6       3.209
  J32                  JUNCTION    10.094   10.094     0  00:25          13          13       2.896
  J28                  JUNCTION    16.140   16.706     0  00:25        20.8        23.5       2.531
  OF                   OUTFALL      0.000    7.968     0  00:05           0          21       0.000
  
  
  **********************
  Node Surcharge Summary
  **********************
  
  Surcharging occurs when water rises above the top of the highest conduit.
  ---------------------------------------------------------------------
                                               Max. Height   Min. Depth
                                   Hours       Above Crown    Below Rim
  Node                 Type      Surcharged         Meters       Meters
  ---------------------------------------------------------------------
  J7                   JUNCTION        0.83          0.850        0.000
  J13                  JUNCTION        0.83          0.850        0.000
  J19                  JUNCTION        0.83          0.850        0.000
  J25                  JUNCTION        0.83          0.850        0.000
  J1                   JUNCTION        0.83          0.850        0.000
  J2                   JUNCTION        0.83          0.850        0.000
  J3                   JUNCTION        0.83          0.850        0.000
  J4                   JUNCTION        0.83          0.850        0.000
  J5                   JUNCTION        0.83          0.850        0.000
  J6                   JUNCTION        0.83          0.850        0.000
  J8                   JUNCTION        0.83          0.850        0.000
  J9                   JUNCTION        0.83          0.850        0.000
  J10                  JUNCTION        0.83          0.850        0.000
  J11                  JUNCTION        0.83          0.850        0.000
  J12                  JUNCTION        0.83          0.850        0.000
  J14                  JUNCTION        0.83          0.850        0.000
  J15                  JUNCTION        0.83          0.850        0.000
  J16                  JUNCTION        0.83          0.850        0.000
  J17                  JUNCTION        0.83          0.850        0.000
  J18                  JUNCTION        0.83          0.850        0.000
  J20                  JUNCTION        0.83          0.850        0.000
  J21                  JUNCTION        0.83          0.850        0.000
  J22                  JUNCTION        0.83          0.850        0.000
  J23                  JUNCTION        0.83          0.850        0.000
  J24                  JUNCTION        0.83          0.850        0.000
  J26                  JUNCTION        0.83          0.850        0.000
  J27                  JUNCTION        0.83          0.850        0.000
  J29                  JUNCTION        0.83          0.850        0.000
  J30                  JUNCTION        0.83          0.850        0.000
  J31                  JUNCTION        0.83          0.850        0.000
  J33                  JUNCTION        0.83          0.850        0.000
  J32                  JUNCTION        0.83          0.850        0.000
  J28                  JUNCTION        0.83          0.850        0.000
  
  
  *********************
  Node Flooding Summary
  *********************
  
  Flooding refers to all water that overflows a node, whether it ponds or not.
  --------------------------------------------------------------------------
                                                             Total   Maximum
                                 Maximum   Time of Max       Flood    Ponded
                        Hours       Rate    Occurrence      Volume     Depth
  Node                 Flooded       CMS   days hr:min    10^6 ltr    Meters
  --------------------------------------------------------------------------
  J7                      0.83    71.333      0  00:30      87.364     0.000
  J13                     0.83     6.159      0  00:30       7.975     0.000
  J19                     0.83   284.539      0  00:30     355.476     0.000
  J25                     0.83    35.453      0  00:30      44.269     0.000
  J1                      0.83    24.377      0  00:30      31.190     0.000
  J2                      0.83    18.072      0  00:30      21.604     0.000
  J3                      0.83    12.770      0  00:05       7.109     0.000
  J4                      0.83    53.284      0  00:30      67.441     0.000
  J5                      0.83    43.247      0  00:30      51.107     0.000
  J6                      0.83    19.104      0  00:30      24.198     0.000
  J8                      0.83    29.668      0  00:25      38.270     0.000
  J9                      0.83    13.106      0  00:30      15.876     0.000
  J10                     0.83    19.326      0  00:30      23.208     0.000
  J11                     0.83    21.351      0  00:30      26.893     0.000
  J12                     0.83    22.719      0  00:30      28.877     0.000
  J14                     0.83    19.174      0  00:30      24.734     0.000
  J15                     0.83    27.225      0  00:30      34.386     0.000
  J16                     0.83    16.313      0  00:25      21.596     0.000
  J17                     0.83     6.927      0  00:05       4.976     0.000
  J18                     0.83     3.429      0  00:05       2.962     0.000
  J20                     0.83    53.581      0  00:30      68.847     0.000
  J21                     0.83    17.698      0  00:30      22.830     0.000
  J22                     0.83    35.922      0  00:30      44.977     0.000
  J23                     0.83    18.819      0  00:30      23.313     0.000
  J24                     0.83     8.621      0  00:05       6.478     0.000
  J26                     0.83    15.633      0  00:25      20.166     0.000
  J27                     0.83    13.927      0  00:25      18.358     0.000
  J29                     0.83    22.398      0  00:30      28.228     0.000
  J30                     0.83    13.749      0  00:05       6.230     0.000
  J31                     0.83    64.983      0  00:30      80.329     0.000
  J33                     0.83    22.127      0  00:30      28.581     0.000
  J32                     0.83     9.917      0  00:30      12.325     0.000
  J28                     0.83    16.393      0  00:25      21.370     0.000
  
  
  ***********************
  Outfall Loading Summary
  ***********************
  
  -----------------------------------------------------------
                         Flow       Avg       Max       Total
                         Freq      Flow      Flow      Volume
  Outfall Node           Pcnt       CMS       CMS    10^6 ltr
  -----------------------------------------------------------
  OF                   100.00     7.321     7.968      21.044
  -----------------------------------------------------------
  System               100.00     7.321     7.968      21.044
  
  
  ********************
  Link Flow Summary
  ********************
  
  -----------------------------------------------------------------------------
                                 Maximum  Time of Max   Maximum    Max/    Max/
                                  |Flow|   Occurrence   |Veloc|    Full    Full
  Link                 Type          CMS  days hr:min     m/sec    Flow   Depth
  -----------------------------------------------------------------------------
  P1                   PUMP        0.000     0  00:00                          
  C23                  CONDUIT     0.000     0  00:00      0.00    0.00    1.00
  C24                  CONDUIT     0.909     0  00:05      0.42    7.87    1.00
  C25                  CONDUIT     0.000     0  00:00      0.00    0.00    1.00
  C26                  CONDUIT     0.603     0  00:05      0.28    4.72    1.00
  C27                  CONDUIT     0.000     0  00:00      0.00    0.00    1.00
  C28                  CONDUIT     1.957     0  00:05      0.92   13.49    1.00
  C29                  CONDUIT     0.237     0  00:05      0.11    1.67    1.00
  C30                  CONDUIT     0.719     0  00:05      0.34    6.31    1.00
  C31                  CONDUIT     0.504     0  00:05      0.24    4.41    1.00
  C32                  CONDUIT     4.852     0  00:05      2.27   31.36    1.00
  C33                  CONDUIT     6.142     0  00:05      2.87   35.94    1.00
  C34                  CONDUIT     0.850     0  00:05      0.40    6.77    1.00
  C35                  CONDUIT     0.000     0  00:05      0.00    0.00    1.00
  C36                  CONDUIT     0.544     0  00:05      0.25    5.14    1.00
  C37                  CONDUIT     1.923     0  00:05      0.90   13.20    1.00
  C38                  CONDUIT     1.554     0  00:05      0.73   10.83    1.00
  C39                  CONDUIT     2.227     0  00:05      1.04   14.11    1.00
  C40                  CONDUIT     0.000     0  00:00      0.00    0.00    1.00
  C41                  CONDUIT     0.000     0  00:00      0.00    0.00    1.00
  C43                  CONDUIT     0.000     0  00:00      0.00    0.00    1.00
  C44                  CONDUIT     0.386     0  00:05      0.18    3.29    1.00
  C45                  CONDUIT    10.912     0  00:05      5.10   93.63    1.00
  C46                  CONDUIT     2.867     0  00:05      1.34   23.76    1.00
  C48                  CONDUIT     0.000     0  00:05      0.00    0.00    1.00
  C42                  CONDUIT     1.438     0  00:05      0.67   11.40    1.00
  C50                  CONDUIT     0.544     0  00:05      0.25    5.25    1.00
  C49                  CONDUIT     0.835     0  00:05      0.39    7.29    1.00
  C01                  CONDUIT     0.000     0  00:00      0.00    0.00    1.00
  C02                  CONDUIT     0.000     0  00:00      0.00    0.00    1.00
  C03                  CONDUIT     0.731     0  00:05      0.34    5.84    1.00
  C04                  CONDUIT     1.333     0  00:05      0.62   10.49    1.00
  C05                  CONDUIT     0.256     0  00:05      0.12    2.04    1.00
  C06                  CONDUIT     0.000     0  00:00      0.00    0.00    1.00
  C07                  CONDUIT     0.000     0  00:00      0.00    0.00    1.00
  C08                  CONDUIT     0.000     0  00:00      0.00    0.00    1.00
  C09                  CONDUIT     0.894     0  00:05      0.42    7.83    1.00
  C10                  CONDUIT     1.032     0  00:05      0.48    8.23    1.00
  C11                  CONDUIT     0.000     0  00:00      0.00    0.00    1.00
  C12                  CONDUIT     1.215     0  00:05      0.57   10.47    1.00
  C13                  CONDUIT     0.777     0  00:05      0.36    6.76    1.00
  C14                  CONDUIT     3.099     0  00:05      1.45   24.62    1.00
  C15                  CONDUIT     0.206     0  00:05      0.10    1.64    1.00
  C16                  CONDUIT     7.774     0  00:05      3.64   68.25    1.00
  C17                  CONDUIT     2.561     0  00:05      1.20   22.60    1.00
  C18                  CONDUIT     0.000     0  00:00      0.00    0.00    1.00
  C19                  CONDUIT     0.000     0  00:00      0.00    0.00    1.00
  C20                  CONDUIT     2.584     0  00:05      1.21   23.01    1.00
  C21                  CONDUIT     0.000     0  00:05      0.00    0.00    1.00
  C22                  CONDUIT     0.364     0  00:05      0.17    2.88    1.00
  C47                  CONDUIT     0.639     0  00:05      0.30    6.57    1.00
  Cout                 CONDUIT     7.968     0  00:05      3.85   62.92    0.93
  
  
  ***************************
  Flow Classification Summary
  ***************************
  
  -------------------------------------------------------------------------------------
                      Adjusted    ---------- Fraction of Time in Flow Class ---------- 
                       /Actual         Up    Down  Sub   Sup   Up    Down  Norm  Inlet 
  Conduit               Length    Dry  Dry   Dry   Crit  Crit  Crit  Crit  Ltd   Ctrl  
  -------------------------------------------------------------------------------------
  C23                     1.00   0.00  0.00  0.00  1.00  0.00  0.00  0.00  0.00  0.00
  C24                     1.00   0.00  0.00  0.00  1.00  0.00  0.00  0.00  0.00  0.00
  C25                     1.00   0.00  0.00  0.00  1.00  0.00  0.00  0.00  0.00  0.00
  C26                     1.00   0.00  0.00  0.00  1.00  0.00  0.00  0.00  0.00  0.00
  C27                     1.00   0.00  0.00  0.00  1.00  0.00  0.00  0.00  0.00  0.00
  C28                     1.00   0.00  0.00  0.00  1.00  0.00  0.00  0.00  0.00  0.00
  C29                     1.00   0.00  0.00  0.00  1.00  0.00  0.00  0.00  0.00  0.00
  C30                     1.00   0.00  0.00  0.00  1.00  0.00  0.00  0.00  0.00  0.00
  C31                     1.00   0.00  0.00  0.00  1.00  0.00  0.00  0.00  0.00  0.00
  C32                     1.00   0.00  0.00  0.00  1.00  0.00  0.00  0.00  0.00  0.00
  C33                     1.00   0.00  0.00  0.00  1.00  0.00  0.00  0.00  0.00  0.00
  C34                     1.00   0.00  0.00  0.00  1.00  0.00  0.00  0.00  0.00  0.00
  C35                     1.00   0.00  0.00  0.00  1.00  0.00  0.00  0.00  0.00  0.00
  C36                     1.00   0.00  0.00  0.00  1.00  0.00  0.00  0.00  0.00  0.00
  C37                     1.00   0.00  0.00  0.00  1.00  0.00  0.00  0.00  0.00  0.00
  C38                     1.00   0.00  0.00  0.00  1.00  0.00  0.00  0.00  0.00  0.00
  C39                     1.00   0.00  0.00  0.00  1.00  0.00  0.00  0.00  0.00  0.00
  C40                     1.00   0.00  0.00  0.00  1.00  0.00  0.00  0.00  0.00  0.00
  C41                     1.00   0.00  0.00  0.00  1.00  0.00  0.00  0.00  0.00  0.00
  C43                     1.00   0.00  0.00  0.00  1.00  0.00  0.00  0.00  0.00  0.00
  C44                     1.00   0.00  0.00  0.00  1.00  0.00  0.00  0.00  0.00  0.00
  C45                     1.00   0.00  0.00  0.00  1.00  0.00  0.00  0.00  0.00  0.00
  C46                     1.00   0.00  0.00  0.00  1.00  0.00  0.00  0.00  0.00  0.00
  C48                     1.00   0.00  0.00  0.00  1.00  0.00  0.00  0.00  0.00  0.00
  C42                     1.00   0.00  0.00  0.00  1.00  0.00  0.00  0.00  0.00  0.00
  C50                     1.00   0.00  0.00  0.00  1.00  0.00  0.00  0.00  0.00  0.00
  C49                     1.00   0.00  0.00  0.00  1.00  0.00  0.00  0.00  0.00  0.00
  C01                     1.00   0.00  0.00  0.00  1.00  0.00  0.00  0.00  0.00  0.00
  C02                     1.00   0.00  0.00  0.00  1.00  0.00  0.00  0.00  0.00  0.00
  C03                     1.00   0.00  0.00  0.00  1.00  0.00  0.00  0.00  0.00  0.00
  C04                     1.00   0.00  0.00  0.00  1.00  0.00  0.00  0.00  0.00  0.00
  C05                     1.00   0.00  0.00  0.00  1.00  0.00  0.00  0.00  0.00  0.00
  C06                     1.00   0.00  0.00  0.00  1.00  0.00  0.00  0.00  0.00  0.00
  C07                     1.00   0.00  0.00  0.00  1.00  0.00  0.00  0.00  0.00  0.00
  C08                     1.00   0.00  0.00  0.00  1.00  0.00  0.00  0.00  0.00  0.00
  C09                     1.00   0.00  0.00  0.00  1.00  0.00  0.00  0.00  0.00  0.00
  C10                     1.00   0.00  0.00  0.00  1.00  0.00  0.00  0.00  0.00  0.00
  C11                     1.00   0.00  0.00  0.00  1.00  0.00  0.00  0.00  0.00  0.00
  C12                     1.00   0.00  0.00  0.00  1.00  0.00  0.00  0.00  0.00  0.00
  C13                     1.00   0.00  0.00  0.00  1.00  0.00  0.00  0.00  0.00  0.00
  C14                     1.00   0.00  0.00  0.00  1.00  0.00  0.00  0.00  0.00  0.00
  C15                     1.00   0.00  0.00  0.00  1.00  0.00  0.00  0.00  0.00  0.00
  C16                     1.00   0.00  0.00  0.00  1.00  0.00  0.00  0.00  0.00  0.00
  C17                     1.00   0.00  0.00  0.00  1.00  0.00  0.00  0.00  0.00  0.00
  C18                     1.00   0.00  0.00  0.00  1.00  0.00  0.00  0.00  0.00  0.00
  C19                     1.00   0.00  0.00  0.00  1.00  0.00  0.00  0.00  0.00  0.00
  C20                     1.00   0.00  0.00  0.00  1.00  0.00  0.00  0.00  0.00  0.00
  C21                     1.00   0.00  0.00  0.00  1.00  0.00  0.00  0.00  0.00  0.00
  C22                     1.00   0.00  0.00  0.00  1.00  0.00  0.00  0.00  0.00  0.00
  C47                     1.00   0.00  0.00  0.00  1.00  0.00  0.00  0.00  0.00  0.00
  Cout                    1.00   0.00  0.00  0.00  1.00  0.00  0.00  0.00  0.00  0.00
  
  
  *************************
  Conduit Surcharge Summary
  *************************
  
  ----------------------------------------------------------------------------
                                                           Hours        Hours 
                         --------- Hours Full --------   Above Full   Capacity
  Conduit                Both Ends  Upstream  Dnstream   Normal Flow   Limited
  ----------------------------------------------------------------------------
  C23                         0.83      0.83      0.83      0.01         0.01
  C24                         0.83      0.83      0.83      0.83         0.01
  C25                         0.83      0.83      0.83      0.01         0.01
  C26                         0.83      0.83      0.83      0.76         0.01
  C27                         0.83      0.83      0.83      0.01         0.01
  C28                         0.83      0.83      0.83      0.79         0.01
  C29                         0.83      0.83      0.83      0.39         0.01
  C30                         0.83      0.83      0.83      0.83         0.01
  C31                         0.83      0.83      0.83      0.83         0.01
  C32                         0.83      0.83      0.83      0.78         0.01
  C33                         0.83      0.83      0.83      0.71         0.01
  C34                         0.83      0.83      0.83      0.83         0.01
  C35                         0.83      0.83      0.83      0.01         0.01
  C36                         0.83      0.83      0.83      0.83         0.01
  C37                         0.83      0.83      0.83      0.78         0.01
  C38                         0.83      0.83      0.83      0.78         0.01
  C39                         0.83      0.83      0.83      0.73         0.01
  C40                         0.83      0.83      0.83      0.01         0.01
  C41                         0.83      0.83      0.83      0.01         0.01
  C43                         0.83      0.83      0.83      0.01         0.01
  C44                         0.83      0.83      0.83      0.74         0.01
  C45                         0.83      0.83      0.83      0.83         0.01
  C46                         0.83      0.83      0.83      0.83         0.01
  C48                         0.83      0.83      0.83      0.01         0.01
  C42                         0.83      0.83      0.83      0.83         0.01
  C50                         0.83      0.83      0.83      0.83         0.01
  C49                         0.83      0.83      0.83      0.83         0.01
  C01                         0.83      0.83      0.83      0.01         0.01
  C02                         0.83      0.83      0.83      0.01         0.01
  C03                         0.83      0.83      0.83      0.81         0.01
  C04                         0.83      0.83      0.83      0.83         0.01
  C05                         0.83      0.83      0.83      0.53         0.01
  C06                         0.83      0.83      0.83      0.01         0.01
  C07                         0.83      0.83      0.83      0.01         0.01
  C08                         0.83      0.83      0.83      0.01         0.01
  C09                         0.83      0.83      0.83      0.83         0.01
  C10                         0.83      0.83      0.83      0.83         0.01
  C11                         0.83      0.83      0.83      0.01         0.01
  C12                         0.83      0.83      0.83      0.83         0.01
  C13                         0.83      0.83      0.83      0.83         0.01
  C14                         0.83      0.83      0.83      0.83         0.01
  C15                         0.83      0.83      0.83      0.42         0.01
  C16                         0.83      0.83      0.83      0.83         0.01
  C17                         0.83      0.83      0.83      0.83         0.01
  C18                         0.83      0.83      0.83      0.01         0.01
  C19                         0.83      0.83      0.83      0.01         0.01
  C20                         0.83      0.83      0.83      0.83         0.01
  C21                         0.83      0.83      0.83      0.01         0.01
  C22                         0.83      0.83      0.83      0.65         0.01
  C47                         0.83      0.83      0.83      0.83         0.01
  Cout                        0.01      0.83      0.01      0.83         0.01
  
  
  ***************
  Pumping Summary
  ***************
  
  ---------------------------------------------------------------------------------------------------------
                                                  Min       Avg       Max     Total     Power    % Time Off
                        Percent   Number of      Flow      Flow      Flow    Volume     Usage    Pump Curve
  Pump                 Utilized   Start-Ups       CMS       CMS       CMS  10^6 ltr     Kw-hr    Low   High
  ---------------------------------------------------------------------------------------------------------
  P1                       0.00           0      0.00      0.00      0.00     0.000      0.00    0.0    0.0
  

  Analysis begun on:  Mon Nov 18 19:49:45 2024
  Analysis ended on:  Mon Nov 18 19:49:45 2024
  Total elapsed time: < 1 sec