
  EPA STORM WATER MANAGEMENT MODEL - VERSION 5.2 (Build 5.2.4)
  PYSWMM TOOLKIT API - VERSION v1.0 (2023-11-27)
  ------------------------------------------------------------

  WARNING 04: minimum elevation drop used for Conduit C23
  WARNING 04: minimum elevation drop used for Conduit C24
  WARNING 04: minimum elevation drop used for Conduit C25
  WARNING 04: minimum elevation drop used for Conduit C26
  WARNING 04: minimum elevation drop used for Conduit C27
  WARNING 04: minimum elevation drop used for Conduit C28
  WARNING 04: minimum elevation drop used for Conduit C29
  WARNING 04: minimum elevation drop used for Conduit C30
  WARNING 04: minimum elevation drop used for Conduit C31
  WARNING 04: minimum elevation drop used for Conduit C32
  WARNING 04: minimum elevation drop used for Conduit C33
  WARNING 04: minimum elevation drop used for Conduit C34
  WARNING 04: minimum elevation drop used for Conduit C35
  WARNING 04: minimum elevation drop used for Conduit C36
  WARNING 04: minimum elevation drop used for Conduit C37
  WARNING 04: minimum elevation drop used for Conduit C38
  WARNING 04: minimum elevation drop used for Conduit C39
  WARNING 04: minimum elevation drop used for Conduit C40
  WARNING 04: minimum elevation drop used for Conduit C41
  WARNING 04: minimum elevation drop used for Conduit C43
  WARNING 04: minimum elevation drop used for Conduit C44
  WARNING 04: minimum elevation drop used for Conduit C45
  WARNING 04: minimum elevation drop used for Conduit C46
  WARNING 04: minimum elevation drop used for Conduit C48
  WARNING 04: minimum elevation drop used for Conduit C42
  WARNING 04: minimum elevation drop used for Conduit C50
  WARNING 04: minimum elevation drop used for Conduit C49
  WARNING 04: minimum elevation drop used for Conduit C01
  WARNING 04: minimum elevation drop used for Conduit C02
  WARNING 04: minimum elevation drop used for Conduit C03
  WARNING 04: minimum elevation drop used for Conduit C04
  WARNING 04: minimum elevation drop used for Conduit C05
  WARNING 04: minimum elevation drop used for Conduit C06
  WARNING 04: minimum elevation drop used for Conduit C07
  WARNING 04: minimum elevation drop used for Conduit C08
  WARNING 04: minimum elevation drop used for Conduit C09
  WARNING 04: minimum elevation drop used for Conduit C10
  WARNING 04: minimum elevation drop used for Conduit C11
  WARNING 04: minimum elevation drop used for Conduit C12
  WARNING 04: minimum elevation drop used for Conduit C13
  WARNING 04: minimum elevation drop used for Conduit C14
  WARNING 04: minimum elevation drop used for Conduit C15
  WARNING 04: minimum elevation drop used for Conduit C16
  WARNING 04: minimum elevation drop used for Conduit C17
  WARNING 04: minimum elevation drop used for Conduit C18
  WARNING 04: minimum elevation drop used for Conduit C19
  WARNING 04: minimum elevation drop used for Conduit C20
  WARNING 04: minimum elevation drop used for Conduit C21
  WARNING 04: minimum elevation drop used for Conduit C22
  WARNING 04: minimum elevation drop used for Conduit C47
  WARNING 04: minimum elevation drop used for Conduit Cout
  
  ****************
  Analysis Options
  ****************
  Flow Units ............... CMS
  Process Models:
    Rainfall/Runoff ........ YES
    RDII ................... NO
    Snowmelt ............... NO
    Groundwater ............ NO
    Flow Routing ........... YES
    Ponding Allowed ........ NO
    Water Quality .......... NO
  Infiltration Method ...... HORTON
  Flow Routing Method ...... DYNWAVE
  Surcharge Method ......... EXTRAN
  Starting Date ............ 08/21/2022 13:00:00
  Ending Date .............. 08/21/2022 13:40:00
  Antecedent Dry Days ...... 0.0
  Report Time Step ......... 00:10:00
  Wet Time Step ............ 00:05:00
  Dry Time Step ............ 01:00:00
  Routing Time Step ........ 300.00 sec
  Variable Time Step ....... YES
  Maximum Trials ........... 8
  Number of Threads ........ 1
  Head Tolerance ........... 0.001524 m
  
  
  *********************
  Rainfall File Summary
  *********************
  Station    First        Last         Recording   Periods    Periods    Periods
  ID         Date         Date         Frequency  w/Precip    Missing    Malfunc.
  -------------------------------------------------------------------------------
  813        08/21/2022   08/21/2022      10 min         5          0          0

  
  
  **************************        Volume         Depth
  Runoff Quantity Continuity     hectare-m            mm
  **************************     ---------       -------
  Total Precipitation ......        92.706       927.100
  Evaporation Loss .........         0.000         0.000
  Infiltration Loss ........         0.000         0.000
  Surface Runoff ...........        86.338       863.411
  Final Storage ............         8.327        83.272
  Continuity Error (%) .....        -2.112
  
  
  **************************        Volume        Volume
  Flow Routing Continuity        hectare-m      10^6 ltr
  **************************     ---------     ---------
  Dry Weather Inflow .......         0.000         0.000
  Wet Weather Inflow .......        77.711       777.123
  Groundwater Inflow .......         0.000         0.000
  RDII Inflow ..............         0.000         0.000
  External Inflow ..........         0.000         0.000
  External Outflow .........         1.611        16.112
  Flooding Loss ............        76.069       760.693
  Evaporation Loss .........         0.000         0.000
  Exfiltration Loss ........         0.000         0.000
  Initial Stored Volume ....         0.046         0.463
  Final Stored Volume ......         1.883        18.831
  Continuity Error (%) .....        -2.321
  
  
  *************************
  Highest Continuity Errors
  *************************
  Node J17 (-80.87%)
  Node J30 (-67.76%)
  Node J18 (27.04%)
  Node J3 (15.52%)
  Node J22 (-13.24%)
  
  
  ***************************
  Time-Step Critical Elements
  ***************************
  Link Cout (86.42%)
  Link C40 (1.85%)
  Link C38 (1.23%)
  Link C26 (1.23%)
  Link C33 (1.23%)
  
  
  ********************************
  Highest Flow Instability Indexes
  ********************************
  Link C29 (8)
  Link C26 (8)
  Link C38 (7)
  Link C39 (7)
  Link C49 (7)
  
  
  *********************************
  Most Frequent Nonconverging Nodes
  *********************************
  Node OF (13.58%)
  Node J21 (8.64%)
  Node J15 (7.41%)
  Node J2 (6.79%)
  Node J26 (6.79%)
  
  
  *************************
  Routing Time Step Summary
  *************************
  Minimum Time Step           :     1.76 sec
  Average Time Step           :    14.81 sec
  Maximum Time Step           :   300.00 sec
  % of Time in Steady State   :     0.00
  Average Iterations per Step :     2.89
  % of Steps Not Converging   :    13.58
  Time Step Frequencies       :
     300.000 - 83.462 sec      :     0.62 %
     83.462 - 23.220 sec      :     0.62 %
     23.220 -  6.460 sec      :    92.55 %
      6.460 -  1.797 sec      :     5.59 %
      1.797 -  0.500 sec      :     0.62 %
  
  
  ***************************
  Subcatchment Runoff Summary
  ***************************
  
  ------------------------------------------------------------------------------------------------------------------------------
                            Total      Total      Total      Total     Imperv       Perv      Total       Total     Peak  Runoff
                           Precip      Runon       Evap      Infil     Runoff     Runoff     Runoff      Runoff   Runoff   Coeff
  Subcatchment                 mm         mm         mm         mm         mm         mm         mm    10^6 ltr      CMS
  ------------------------------------------------------------------------------------------------------------------------------
  S1                       927.10       0.00       0.00       0.00       9.18     917.92     927.10      233.87   138.84   1.000
  S2                       927.10       0.00       0.00       0.00       8.44     914.10     922.53        7.17     4.28   0.995
  S3                       927.10       0.00       0.00       0.00       8.44     918.66     927.10        1.92     1.14   1.000
  S4                       927.10       0.00       0.00       0.00       8.44     918.66     927.10        1.90     1.13   1.000
  S5                       927.10       0.00       0.00       0.00       8.44     918.66     927.10        2.77     1.65   1.000
  S6                       927.10       0.00       0.00       0.00       8.44     918.66     927.10        7.64     4.54   1.000
  S7                       927.10       0.00       0.00       0.00       8.44     918.66     927.10        1.44     0.85   1.000
  S8                       927.10       0.00       0.00       0.00       8.44     918.66     927.10        4.52     2.68   1.000
  S9                       927.10       0.00       0.00       0.00       8.44     918.66     927.10        5.58     3.31   1.000
  S10                      927.10       0.00       0.00       0.00       0.00     918.66     918.66        1.30     0.77   0.991
  S11                      927.10       0.00       0.00       0.00       8.44     862.12     870.56       12.74     8.04   0.939
  S12                      927.10       0.00       0.00       0.00       8.44     918.66     927.10        8.05     4.78   1.000
  S13                      927.10       0.00       0.00       0.00       0.00     918.66     918.66        7.75     4.60   0.991
  S14                      927.10       0.00       0.00       0.00       7.79     919.31     927.10        7.44     4.42   1.000
  S15                      927.10       0.00       0.00       0.00       7.79     919.31     927.10        6.95     4.13   1.000
  S16                      927.10       0.00       0.00       0.00       7.14     904.05     911.19       16.09     9.72   0.983
  S17                      927.10       0.00       0.00       0.00       7.14     787.44     794.58       27.06    18.60   0.857
  S18                      927.10       0.00       0.00       0.00       7.14     919.79     926.93        1.20     0.71   1.000
  S19                      927.10       0.00       0.00       0.00       7.14       0.00       7.14        0.02     0.01   0.008
  S20                      927.10       0.00       0.00       0.00       7.14     919.82     926.96        0.95     0.56   1.000
  S21                      927.10       0.00       0.00       0.00       7.14     886.10     893.23       14.81     9.12   0.963
  S22                      927.10       0.00       0.00       0.00       7.14     919.93     927.07        0.31     0.18   1.000
  S23                      927.10       0.00       0.00       0.00       7.14     919.96     927.10        0.36     0.21   1.000
  S24                      927.10       0.00       0.00       0.00       7.14     919.96     927.10        0.45     0.27   1.000
  S25                      927.10       0.00       0.00       0.00       7.14     919.96     927.10        0.55     0.32   1.000
  S26                      927.10       0.00       0.00       0.00       7.14     919.96     927.10        0.64     0.38   1.000
  S27                      927.10       0.00       0.00       0.00       7.14     918.35     925.49        7.69     4.57   0.998
  S28                      927.10       0.00       0.00       0.00       7.14     889.27     896.41        7.96     4.89   0.967
  S29                      927.10       0.00       0.00       0.00       7.14     919.87     927.01        0.85     0.51   1.000
  S30                      927.10       0.00       0.00       0.00       7.14     751.38     758.52       48.32    34.58   0.818
  S31                      927.10       0.00       0.00       0.00       7.42     919.68     927.10       12.56     7.46   1.000
  S32                      927.10       0.00       0.00       0.00       7.42     919.68     927.10        3.87     2.30   1.000
  S33                      927.10       0.00       0.00       0.00       8.71     918.39     927.10        2.88     1.71   1.000
  S34                      927.10       0.00       0.00       0.00       8.71     918.39     927.10        3.05     1.81   1.000
  S35                      927.10       0.00       0.00       0.00       8.44     918.66     927.10        3.73     2.21   1.000
  S36                      927.10       0.00       0.00       0.00       8.44     918.66     927.10        1.53     0.91   1.000
  S37                      927.10       0.00       0.00       0.00       8.44     918.66     927.10        3.34     1.98   1.000
  S38                      927.10       0.00       0.00       0.00       8.44     918.66     927.10        0.15     0.09   1.000
  S39                      927.10       0.00       0.00       0.00       8.44     918.66     927.10        3.80     2.26   1.000
  S40                      927.10       0.00       0.00       0.00       8.44     918.66     927.10        1.31     0.78   1.000
  S41                      927.10       0.00       0.00       0.00       8.44     918.66     927.10        2.10     1.25   1.000
  S42                      927.10       0.00       0.00       0.00       8.44     918.66     927.10        2.93     1.74   1.000
  S43                      927.10       0.00       0.00       0.00       8.44     918.66     927.10        6.68     3.96   1.000
  S44                      927.10       0.00       0.00       0.00       8.44     918.66     927.10        4.84     2.87   1.000
  S45                      927.10       0.00       0.00       0.00       8.44     918.66     927.10        0.49     0.29   1.000
  S46                      927.10       0.00       0.00       0.00       8.44     918.66     927.10        4.49     2.66   1.000
  S47                      927.10       0.00       0.00       0.00       8.44     918.66     927.10        9.07     5.38   1.000
  S48                      927.10       0.00       0.00       0.00       8.44     918.66     927.10       10.48     6.22   1.000
  S49                      927.10       0.00       0.00       0.00       8.44     918.66     927.10        6.37     3.78   1.000
  S50                      927.10       0.00       0.00       0.00       8.44     918.66     927.10        5.25     3.12   1.000
  S51                      927.10       0.00       0.00       0.00       8.44     918.66     927.10        3.10     1.84   1.000
  S52                      927.10       0.00       0.00       0.00       8.44     918.66     927.10        8.20     4.87   1.000
  S53                      927.10       0.00       0.00       0.00       8.44     889.30     897.73       10.93     6.70   0.968
  S54                      927.10       0.00       0.00       0.00       8.44     912.02     920.45        4.21     2.52   0.993
  S55                      927.10       0.00       0.00       0.00       8.44     918.66     927.10        0.35     0.21   1.000
  S56                      927.10       0.00       0.00       0.00       8.44     918.56     927.00        0.35     0.21   1.000
  S57                      927.10       0.00       0.00       0.00       8.44     918.66     927.10        4.79     2.85   1.000
  S58                      927.10       0.00       0.00       0.00       8.44     918.66     927.10        6.16     3.65   1.000
  S59                      927.10       0.00       0.00       0.00       8.44     918.66     927.10        5.98     3.55   1.000
  S60                      927.10       0.00       0.00       0.00       7.14     916.33     923.46        3.63     2.16   0.996
  S61                      927.10       0.00       0.00       0.00       7.14       0.00       7.14        0.02     0.01   0.008
  S62                      927.10       0.00       0.00       0.00       7.14     725.81     732.95       39.28    28.91   0.791
  S63                      927.10       0.00       0.00       0.00       7.14     919.96     927.10        8.71     5.17   1.000
  S64                      927.10       0.00       0.00       0.00       7.14     919.96     927.10       23.59    14.01   1.000
  S65                      927.10       0.00       0.00       0.00       7.14     919.96     927.10        3.76     2.23   1.000
  S66                      927.10       0.00       0.00       0.00       7.14     919.96     927.10        6.07     3.61   1.000
  S67                      927.10       0.00       0.00       0.00       7.14     919.96     927.10       11.35     6.74   1.000
  S68                      927.10       0.00       0.00       0.00       7.14     919.96     927.10       13.30     7.90   1.000
  S69                      927.10       0.00       0.00       0.00       7.14       0.00       7.14        0.18     0.11   0.008
  S70                      927.10       0.00       0.00       0.00       7.14     884.63     891.77       23.34    14.40   0.962
  S71                      927.10       0.00       0.00       0.00       8.44     918.66     927.10       13.64     8.10   1.000
  S72                      927.10       0.00       0.00       0.00       7.14     906.68     913.82        4.53     2.73   0.986
  S73                      927.10       0.00       0.00       0.00       7.14     919.96     927.10       19.43    11.54   1.000
  S74                      927.10       0.00       0.00       0.00       7.14       0.00       7.14        0.05     0.03   0.008
  S75                      927.10       0.00       0.00       0.00       7.14     919.96     927.10        0.62     0.37   1.000
  S76                      927.10       0.00       0.00       0.00       7.14     919.96     927.10       12.25     7.27   1.000
  S77                      927.10       0.00       0.00       0.00       7.14     919.96     927.10        9.91     5.88   1.000
  S78                      927.10       0.00       0.00       0.00       7.14     919.96     927.10        7.19     4.27   1.000
  S79                      927.10       0.00       0.00       0.00       8.44     918.66     927.10        6.30     3.74   1.000
  S80                      927.10       0.00       0.00       0.00       7.14     918.48     925.62        2.55     1.52   0.998
  S81                      927.10       0.00       0.00       0.00       7.14     919.96     927.10       10.49     6.22   1.000
  S82                      927.10       0.00       0.00       0.00       7.14     919.96     927.10       10.24     6.08   1.000
  S83                      927.10       0.00       0.00       0.00       7.14     919.96     927.10        6.58     3.91   1.000
  S84                      927.10       0.00       0.00       0.00       8.44     918.66     927.10        4.30     2.55   1.000
  S85                      927.10       0.00       0.00       0.00       8.44     895.99     904.43       11.18     6.80   0.976
  S86                      927.10       0.00       0.00       0.00       0.00     918.66     918.66       10.63     6.31   0.991
  S87                      927.10       0.00       0.00       0.00       8.44     918.66     927.10       11.51     6.84   1.000
  S88                      927.10       0.00       0.00       0.00       8.44     918.66     927.10        2.08     1.23   1.000
  S89                      927.10       0.00       0.00       0.00       8.44     918.66     927.10        9.37     5.56   1.000
  S90                      927.10       0.00       0.00       0.00       0.00     918.66     918.66        4.51     2.68   0.991
  S91                      927.10       0.00       0.00       0.00       8.44     918.66     927.10        1.53     0.91   1.000
  
  
  ******************
  Node Depth Summary
  ******************
  
  ---------------------------------------------------------------------------------
                                 Average  Maximum  Maximum  Time of Max    Reported
                                   Depth    Depth      HGL   Occurrence   Max Depth
  Node                 Type       Meters   Meters   Meters  days hr:min      Meters
  ---------------------------------------------------------------------------------
  J7                   JUNCTION     2.41     2.50     2.50     0  00:06        2.50
  J13                  JUNCTION     2.39     2.50     2.50     0  00:06        2.50
  J19                  JUNCTION     2.40     2.50     2.50     0  00:06        2.50
  J25                  JUNCTION     2.39     2.50     2.50     0  00:05        2.50
  J1                   JUNCTION     2.41     2.50     2.50     0  00:05        2.50
  J2                   JUNCTION     2.40     2.50     2.50     0  00:05        2.50
  J3                   JUNCTION     2.38     2.50     2.50     0  00:05        2.50
  J4                   JUNCTION     2.38     2.50     2.50     0  00:07        2.50
  J5                   JUNCTION     2.37     2.50     2.50     0  00:07        2.50
  J6                   JUNCTION     2.36     2.50     2.50     0  00:06        2.50
  J8                   JUNCTION     2.32     2.50     2.50     0  00:07        2.50
  J9                   JUNCTION     2.38     2.50     2.50     0  00:07        2.50
  J10                  JUNCTION     2.38     2.50     2.50     0  00:05        2.50
  J11                  JUNCTION     2.38     2.50     2.50     0  00:07        2.50
  J12                  JUNCTION     2.38     2.50     2.50     0  00:05        2.50
  J14                  JUNCTION     2.45     2.50     2.50     0  00:05        2.50
  J15                  JUNCTION     2.41     2.50     2.50     0  00:05        2.50
  J16                  JUNCTION     2.37     2.50     2.50     0  00:06        2.50
  J17                  JUNCTION     2.37     2.50     2.50     0  00:07        2.50
  J18                  JUNCTION     2.37     2.50     2.50     0  00:07        2.50
  J20                  JUNCTION     2.45     2.50     2.50     0  00:05        2.50
  J21                  JUNCTION     2.42     2.50     2.50     0  00:05        2.50
  J22                  JUNCTION     2.35     2.50     2.50     0  00:06        2.50
  J23                  JUNCTION     2.38     2.50     2.50     0  00:05        2.50
  J24                  JUNCTION     2.41     2.50     2.50     0  00:05        2.50
  J26                  JUNCTION     2.43     2.50     2.50     0  00:05        2.50
  J27                  JUNCTION     2.39     2.50     2.50     0  00:07        2.50
  J29                  JUNCTION     2.35     2.50     2.50     0  00:07        2.50
  J30                  JUNCTION     2.36     2.50     2.50     0  00:07        2.50
  J31                  JUNCTION     2.37     2.50     2.50     0  00:05        2.50
  J33                  JUNCTION     2.46     2.50     2.50     0  00:05        2.50
  J32                  JUNCTION     2.45     2.50     2.50     0  00:05        2.50
  J28                  JUNCTION     2.38     2.50     2.50     0  00:07        2.50
  OF                   OUTFALL      1.33     1.37     1.37     0  00:19        1.37
  
  
  *******************
  Node Inflow Summary
  *******************
  
  -------------------------------------------------------------------------------------------------
                                  Maximum  Maximum                  Lateral       Total        Flow
                                  Lateral    Total  Time of Max      Inflow      Inflow     Balance
                                   Inflow   Inflow   Occurrence      Volume      Volume       Error
  Node                 Type           CMS      CMS  days hr:min    10^6 ltr    10^6 ltr     Percent
  -------------------------------------------------------------------------------------------------
  J7                   JUNCTION    38.012   38.182     0  00:40        47.9        48.7       0.192
  J13                  JUNCTION     3.140    6.191     0  00:05        4.71        5.85       8.506
  J19                  JUNCTION   148.808  148.808     0  00:40         226         226       0.509
  J25                  JUNCTION    18.591   18.845     0  00:40          24        25.9       1.678
  J1                   JUNCTION    12.491   12.711     0  00:35          19        20.4       0.810
  J2                   JUNCTION     9.384    9.493     0  00:35        14.3        15.2       2.510
  J3                   JUNCTION     0.418   16.484     0  00:05       0.636        1.59      18.370
  J4                   JUNCTION    27.173   27.296     0  00:35        41.3        41.8      -0.753
  J5                   JUNCTION    22.467   22.858     0  00:35        34.2        36.3      -1.784
  J6                   JUNCTION     9.830   10.060     0  00:35        14.9        17.8       5.182
  J8                   JUNCTION    15.125   15.573     0  00:35          23        26.1     -11.528
  J9                   JUNCTION     6.802    7.373     0  00:35        10.1        12.9      -6.105
  J10                  JUNCTION    10.149   10.469     0  00:35        15.4          18       3.873
  J11                  JUNCTION    10.904   11.274     0  00:35        16.6        18.9       1.661
  J12                  JUNCTION    11.536   11.740     0  00:35        17.6        18.9       3.376
  J14                  JUNCTION     9.775   22.744     0  00:05        14.9        20.7       9.467
  J15                  JUNCTION    13.989   30.319     0  00:05        20.9        23.3       3.322
  J16                  JUNCTION     8.096    8.310     0  00:35        12.3        14.5       3.024
  J17                  JUNCTION     0.105    2.928     0  00:07        0.16        2.56     -44.711
  J18                  JUNCTION     0.369    9.468     0  00:05       0.561        3.04      37.061
  J20                  JUNCTION    27.337   27.337     0  00:40        40.8        40.9       1.094
  J21                  JUNCTION     9.023   27.008     0  00:05        13.7          19      10.079
  J22                  JUNCTION    18.525   18.861     0  00:40        27.3        29.7     -11.694
  J23                  JUNCTION     9.719   10.125     0  00:35        14.5        16.6       0.508
  J24                  JUNCTION     1.282    1.950     0  00:07        1.95        3.18       4.101
  J26                  JUNCTION     7.970    8.186     0  00:35        12.1        13.5       1.249
  J27                  JUNCTION     6.990    7.124     0  00:35        10.6        11.2      -2.897
  J29                  JUNCTION    11.465   11.825     0  00:35        17.4        19.9      -9.861
  J30                  JUNCTION     0.000    3.206     0  00:07           0        2.13     -40.389
  J31                  JUNCTION    34.559   34.918     0  00:40        42.7        47.5       3.596
  J33                  JUNCTION    11.280   11.280     0  00:40        17.1        17.2       1.164
  J32                  JUNCTION     5.146   16.566     0  00:05        7.83        12.6      11.554
  J28                  JUNCTION     8.228    8.434     0  00:35        12.5        14.2       4.587
  OF                   OUTFALL      0.000    7.351     0  00:19           0        16.1       0.000
  
  
  **********************
  Node Surcharge Summary
  **********************
  
  Surcharging occurs when water rises above the top of the highest conduit.
  ---------------------------------------------------------------------
                                               Max. Height   Min. Depth
                                   Hours       Above Crown    Below Rim
  Node                 Type      Surcharged         Meters       Meters
  ---------------------------------------------------------------------
  J7                   JUNCTION        0.65          0.850        0.000
  J13                  JUNCTION        0.57          0.850        0.000
  J19                  JUNCTION        0.57          0.850        0.000
  J25                  JUNCTION        0.64          0.850        0.000
  J1                   JUNCTION        0.66          0.850        0.000
  J2                   JUNCTION        0.66          0.850        0.000
  J3                   JUNCTION        0.56          0.850        0.000
  J4                   JUNCTION        0.64          0.850        0.000
  J5                   JUNCTION        0.64          0.850        0.000
  J6                   JUNCTION        0.56          0.850        0.000
  J8                   JUNCTION        0.63          0.850        0.000
  J9                   JUNCTION        0.64          0.850        0.000
  J10                  JUNCTION        0.64          0.850        0.000
  J11                  JUNCTION        0.65          0.850        0.000
  J12                  JUNCTION        0.56          0.850        0.000
  J14                  JUNCTION        0.67          0.850        0.000
  J15                  JUNCTION        0.57          0.850        0.000
  J16                  JUNCTION        0.55          0.850        0.000
  J17                  JUNCTION        0.64          0.850        0.000
  J18                  JUNCTION        0.64          0.850        0.000
  J20                  JUNCTION        0.58          0.850        0.000
  J21                  JUNCTION        0.66          0.850        0.000
  J22                  JUNCTION        0.64          0.850        0.000
  J23                  JUNCTION        0.64          0.850        0.000
  J24                  JUNCTION        0.65          0.850        0.000
  J26                  JUNCTION        0.58          0.850        0.000
  J27                  JUNCTION        0.65          0.850        0.000
  J29                  JUNCTION        0.64          0.850        0.000
  J30                  JUNCTION        0.62          0.850        0.000
  J31                  JUNCTION        0.63          0.850        0.000
  J33                  JUNCTION        0.58          0.850        0.000
  J32                  JUNCTION        0.67          0.850        0.000
  J28                  JUNCTION        0.64          0.850        0.000
  
  
  *********************
  Node Flooding Summary
  *********************
  
  Flooding refers to all water that overflows a node, whether it ponds or not.
  --------------------------------------------------------------------------
                                                             Total   Maximum
                                 Maximum   Time of Max       Flood    Ponded
                        Hours       Rate    Occurrence      Volume     Depth
  Node                 Flooded       CMS   days hr:min    10^6 ltr    Meters
  --------------------------------------------------------------------------
  J7                      0.55    37.977      0  00:40      47.597     0.000
  J13                     0.55     3.130      0  00:40       4.614     0.000
  J19                     0.56   141.259      0  00:40     207.196     0.000
  J25                     0.64    18.652      0  00:40      24.726     0.000
  J1                      0.63    12.387      0  00:40      18.492     0.000
  J2                      0.63     9.312      0  00:40      14.408     0.000
  J3                      0.54    10.831      0  00:05       0.783     0.000
  J4                      0.54    26.817      0  00:40      39.305     0.000
  J5                      0.54    22.285      0  00:40      32.750     0.000
  J6                      0.51     9.507      0  00:40      13.732     0.000
  J8                      0.55    15.355      0  00:35      24.128     0.000
  J9                      0.55     7.148      0  00:35      11.112     0.000
  J10                     0.63    10.145      0  00:40      16.286     0.000
  J11                     0.55    10.901      0  00:40      16.355     0.000
  J12                     0.54    11.363      0  00:40      16.570     0.000
  J14                     0.65    15.061      0  00:05      18.681     0.000
  J15                     0.56    20.090      0  00:05      20.131     0.000
  J16                     0.55     7.834      0  00:40      11.418     0.000
  J17                     0.55     2.898      0  00:07       2.474     0.000
  J18                     0.55     1.232      0  00:07       0.895     0.000
  J20                     0.57    27.044      0  00:40      39.261     0.000
  J21                     0.64    18.610      0  00:05      17.354     0.000
  J22                     0.56    18.679      0  00:40      28.191     0.000
  J23                     0.63     9.959      0  00:35      15.843     0.000
  J24                     0.63     1.283      0  00:35       2.170     0.000
  J26                     0.56     7.966      0  00:40      11.959     0.000
  J27                     0.54     6.952      0  00:40      10.214     0.000
  J29                     0.54    11.448      0  00:40      16.983     0.000
  J30                     0.54     2.610      0  00:07       0.747     0.000
  J31                     0.63    34.897      0  00:40      47.400     0.000
  J33                     0.57    11.130      0  00:40      16.529     0.000
  J32                     0.65    13.780      0  00:05      11.115     0.000
  J28                     0.55     8.256      0  00:40      12.283     0.000
  
  
  ***********************
  Outfall Loading Summary
  ***********************
  
  -----------------------------------------------------------
                         Flow       Avg       Max       Total
                         Freq      Flow      Flow      Volume
  Outfall Node           Pcnt       CMS       CMS    10^6 ltr
  -----------------------------------------------------------
  OF                   100.00     7.043     7.351      16.112
  -----------------------------------------------------------
  System               100.00     7.043     7.351      16.112
  
  
  ********************
  Link Flow Summary
  ********************
  
  -----------------------------------------------------------------------------
                                 Maximum  Time of Max   Maximum    Max/    Max/
                                  |Flow|   Occurrence   |Veloc|    Full    Full
  Link                 Type          CMS  days hr:min     m/sec    Flow   Depth
  -----------------------------------------------------------------------------
  P1                   PUMP        0.000     0  00:00                          
  C23                  CONDUIT     4.410     0  00:05      2.09   38.37    1.00
  C24                  CONDUIT     3.912     0  00:05      1.83   33.89    1.00
  C25                  CONDUIT     2.248     0  00:06      1.11   17.97    1.00
  C26                  CONDUIT     4.008     0  00:05      1.87   31.35    1.00
  C27                  CONDUIT     4.350     0  00:06      2.18   35.79    1.00
  C28                  CONDUIT     6.071     0  00:05      2.84   41.84    1.00
  C29                  CONDUIT     0.921     0  00:06      0.43    6.49    1.00
  C30                  CONDUIT     1.507     0  00:06      0.75   13.24    1.00
  C31                  CONDUIT     2.383     0  00:05      1.11   20.86    1.00
  C32                  CONDUIT     5.896     0  00:05      3.03   38.11    1.00
  C33                  CONDUIT     5.277     0  00:05      2.72   30.87    1.00
  C34                  CONDUIT     3.079     0  00:05      1.44   24.50    1.00
  C35                  CONDUIT     2.256     0  00:06      1.18   23.99    1.00
  C36                  CONDUIT     1.941     0  00:07      1.25   18.32    1.00
  C37                  CONDUIT     2.856     0  00:05      1.34   19.61    1.00
  C38                  CONDUIT     2.145     0  00:05      1.01   14.95    1.00
  C39                  CONDUIT     5.279     0  00:05      2.71   33.46    1.00
  C40                  CONDUIT     3.745     0  00:06      1.76   26.70    1.00
  C41                  CONDUIT     3.256     0  00:05      1.52   25.26    1.00
  C43                  CONDUIT     1.338     0  00:05      0.63   10.20    1.00
  C44                  CONDUIT     2.765     0  00:06      1.40   23.60    1.00
  C45                  CONDUIT     1.930     0  00:07      0.90   16.56    1.00
  C46                  CONDUIT    11.875     0  00:05      5.55   98.40    1.00
  C48                  CONDUIT     5.645     0  00:06      2.73   44.58    1.00
  C42                  CONDUIT     2.865     0  00:05      1.34   22.72    1.00
  C50                  CONDUIT    16.094     0  00:05     12.73  155.46    1.00
  C49                  CONDUIT     3.747     0  00:06      1.85   32.71    1.00
  C01                  CONDUIT     2.577     0  00:06      1.21   21.16    1.00
  C02                  CONDUIT    26.314     0  00:05     19.65  208.19    1.00
  C03                  CONDUIT     4.787     0  00:06      2.66   38.23    1.00
  C04                  CONDUIT     2.416     0  00:07      1.14   19.00    1.00
  C05                  CONDUIT     1.991     0  00:07      0.93   15.88    1.00
  C06                  CONDUIT     0.920     0  00:05      0.43    8.08    1.00
  C07                  CONDUIT    10.971     0  00:05      6.02   96.23    1.00
  C08                  CONDUIT    11.285     0  00:05      6.06   92.34    1.00
  C09                  CONDUIT     5.714     0  00:05      2.67   50.04    1.00
  C10                  CONDUIT     4.156     0  00:05      1.98   33.14    1.00
  C11                  CONDUIT    21.940     0  00:05     16.21  192.75    1.00
  C12                  CONDUIT     0.709     0  00:05      0.33    6.11    1.00
  C13                  CONDUIT     3.937     0  00:05      1.84   34.26    1.00
  C14                  CONDUIT     1.396     0  00:06      0.70   11.09    1.00
  C15                  CONDUIT     9.440     0  00:05      4.41   75.01    1.00
  C16                  CONDUIT     1.852     0  00:07      0.87   16.26    1.00
  C17                  CONDUIT     2.688     0  00:05      1.26   23.72    1.00
  C18                  CONDUIT     4.696     0  00:06      2.36   41.75    1.00
  C19                  CONDUIT     3.127     0  00:05      1.79   24.85    1.00
  C20                  CONDUIT     1.685     0  00:07      0.80   15.00    1.00
  C21                  CONDUIT     3.306     0  00:06      2.30   31.23    1.00
  C22                  CONDUIT     1.503     0  00:05      0.70   11.86    1.00
  C47                  CONDUIT     7.124     0  00:05      3.33   73.23    1.00
  Cout                 CONDUIT     7.351     0  00:19      3.59   58.05    1.00
  
  
  ***************************
  Flow Classification Summary
  ***************************
  
  -------------------------------------------------------------------------------------
                      Adjusted    ---------- Fraction of Time in Flow Class ---------- 
                       /Actual         Up    Down  Sub   Sup   Up    Down  Norm  Inlet 
  Conduit               Length    Dry  Dry   Dry   Crit  Crit  Crit  Crit  Ltd   Ctrl  
  -------------------------------------------------------------------------------------
  C23                     1.00   0.00  0.00  0.00  0.88  0.13  0.00  0.00  0.13  0.00
  C24                     1.00   0.00  0.00  0.00  1.00  0.00  0.00  0.00  0.01  0.00
  C25                     1.00   0.00  0.00  0.00  1.00  0.00  0.00  0.00  0.00  0.00
  C26                     1.00   0.00  0.00  0.00  1.00  0.00  0.00  0.00  0.00  0.00
  C27                     1.00   0.00  0.00  0.00  1.00  0.00  0.00  0.00  0.00  0.00
  C28                     1.00   0.00  0.00  0.00  1.00  0.00  0.00  0.00  0.00  0.00
  C29                     1.00   0.00  0.00  0.00  1.00  0.00  0.00  0.00  0.00  0.00
  C30                     1.00   0.00  0.00  0.00  1.00  0.00  0.00  0.00  0.00  0.00
  C31                     1.00   0.00  0.00  0.00  1.00  0.00  0.00  0.00  0.00  0.00
  C32                     1.00   0.00  0.00  0.00  1.00  0.00  0.00  0.00  0.00  0.00
  C33                     1.00   0.00  0.00  0.00  1.00  0.00  0.00  0.00  0.00  0.00
  C34                     1.00   0.00  0.00  0.00  1.00  0.00  0.00  0.00  0.01  0.00
  C35                     1.00   0.00  0.00  0.00  1.00  0.00  0.00  0.00  0.01  0.00
  C36                     1.00   0.00  0.00  0.00  1.00  0.00  0.00  0.00  0.00  0.00
  C37                     1.00   0.00  0.00  0.00  1.00  0.00  0.00  0.00  0.00  0.00
  C38                     1.00   0.00  0.00  0.00  1.00  0.00  0.00  0.00  0.00  0.00
  C39                     1.00   0.00  0.00  0.00  1.00  0.00  0.00  0.00  0.00  0.00
  C40                     1.00   0.00  0.00  0.00  0.88  0.13  0.00  0.00  0.00  0.00
  C41                     1.00   0.00  0.00  0.00  1.00  0.00  0.00  0.00  0.00  0.00
  C43                     1.00   0.00  0.00  0.00  1.00  0.00  0.00  0.00  0.13  0.00
  C44                     1.00   0.00  0.00  0.00  1.00  0.00  0.00  0.00  0.00  0.00
  C45                     1.00   0.00  0.00  0.00  1.00  0.00  0.00  0.00  0.00  0.00
  C46                     1.00   0.00  0.00  0.00  1.00  0.00  0.00  0.00  0.01  0.00
  C48                     1.00   0.00  0.00  0.00  0.88  0.13  0.00  0.00  0.00  0.00
  C42                     1.00   0.00  0.00  0.00  1.00  0.00  0.00  0.00  0.01  0.00
  C50                     1.00   0.00  0.00  0.00  0.98  0.02  0.00  0.00  0.00  0.00
  C49                     1.00   0.00  0.00  0.00  1.00  0.00  0.00  0.00  0.00  0.00
  C01                     1.00   0.00  0.00  0.00  1.00  0.00  0.00  0.00  0.13  0.00
  C02                     1.00   0.00  0.00  0.00  0.99  0.01  0.00  0.00  0.00  0.00
  C03                     1.00   0.00  0.00  0.00  1.00  0.00  0.00  0.00  0.00  0.00
  C04                     1.00   0.00  0.00  0.00  1.00  0.00  0.00  0.00  0.00  0.00
  C05                     1.00   0.00  0.00  0.00  1.00  0.00  0.00  0.00  0.00  0.00
  C06                     1.00   0.00  0.00  0.00  1.00  0.00  0.00  0.00  0.13  0.00
  C07                     1.00   0.00  0.00  0.00  0.99  0.01  0.00  0.00  0.00  0.00
  C08                     1.00   0.00  0.00  0.00  0.99  0.01  0.00  0.00  0.00  0.00
  C09                     1.00   0.00  0.00  0.00  1.00  0.00  0.00  0.00  0.01  0.00
  C10                     1.00   0.00  0.00  0.00  1.00  0.00  0.00  0.00  0.00  0.00
  C11                     1.00   0.00  0.00  0.00  0.97  0.03  0.00  0.00  0.00  0.00
  C12                     1.00   0.00  0.00  0.00  1.00  0.00  0.00  0.00  0.00  0.00
  C13                     1.00   0.00  0.00  0.00  1.00  0.00  0.00  0.00  0.00  0.00
  C14                     1.00   0.00  0.00  0.00  1.00  0.00  0.00  0.00  0.00  0.00
  C15                     1.00   0.00  0.00  0.00  1.00  0.00  0.00  0.00  0.02  0.00
  C16                     1.00   0.00  0.00  0.00  1.00  0.00  0.00  0.00  0.00  0.00
  C17                     1.00   0.00  0.00  0.00  1.00  0.00  0.00  0.00  0.01  0.00
  C18                     1.00   0.00  0.00  0.00  1.00  0.00  0.00  0.00  0.00  0.00
  C19                     1.00   0.00  0.00  0.00  0.88  0.13  0.00  0.00  0.01  0.00
  C20                     1.00   0.00  0.00  0.00  1.00  0.00  0.00  0.00  0.00  0.00
  C21                     1.00   0.00  0.00  0.00  0.88  0.13  0.00  0.00  0.13  0.00
  C22                     1.00   0.00  0.00  0.00  1.00  0.00  0.00  0.00  0.00  0.00
  C47                     1.00   0.00  0.00  0.00  1.00  0.00  0.00  0.00  0.00  0.00
  Cout                    1.00   0.00  0.00  0.00  1.00  0.00  0.00  0.00  0.13  0.00
  
  
  *************************
  Conduit Surcharge Summary
  *************************
  
  ----------------------------------------------------------------------------
                                                           Hours        Hours 
                         --------- Hours Full --------   Above Full   Capacity
  Conduit                Both Ends  Upstream  Dnstream   Normal Flow   Limited
  ----------------------------------------------------------------------------
  C23                         0.55      0.57      0.64      0.58         0.01
  C24                         0.55      0.55      0.64      0.66         0.01
  C25                         0.64      0.64      0.64      0.67         0.01
  C26                         0.64      0.64      0.64      0.67         0.09
  C27                         0.63      0.63      0.64      0.58         0.01
  C28                         0.64      0.64      0.64      0.66         0.09
  C29                         0.65      0.65      0.66      0.26         0.02
  C30                         0.63      0.64      0.63      0.56         0.09
  C31                         0.64      0.64      0.64      0.67         0.01
  C32                         0.55      0.64      0.56      0.49         0.01
  C33                         0.55      0.56      0.63      0.49         0.01
  C34                         0.63      0.63      0.64      0.64         0.01
  C35                         0.55      0.64      0.56      0.58         0.04
  C36                         0.55      0.55      0.56      0.67         0.04
  C37                         0.64      0.66      0.64      0.11         0.10
  C38                         0.64      0.66      0.64      0.45         0.09
  C39                         0.55      0.64      0.56      0.03         0.01
  C40                         0.57      0.65      0.58      0.58         0.01
  C41                         0.58      0.58      0.58      0.58         0.01
  C43                         0.58      0.58      0.58      0.58         0.01
  C44                         0.63      0.63      0.64      0.66         0.09
  C45                         0.62      0.64      0.62      0.57         0.08
  C46                         0.62      0.62      0.63      0.67         0.01
  C48                         0.56      0.56      0.57      0.67         0.01
  C42                         0.62      0.64      0.62      0.67         0.01
  C50                         0.55      0.58      0.64      0.67         0.01
  C49                         0.64      0.64      0.64      0.67         0.09
  C01                         0.58      0.58      0.58      0.58         0.01
  C02                         0.56      0.58      0.64      0.67         0.01
  C03                         0.63      0.64      0.64      0.58         0.01
  C04                         0.64      0.64      0.64      0.58         0.01
  C05                         0.64      0.64      0.65      0.58         0.01
  C06                         0.58      0.58      0.58      0.58         0.01
  C07                         0.57      0.58      0.57      0.58         0.01
  C08                         0.57      0.58      0.57      0.58         0.01
  C09                         0.55      0.64      0.55      0.66         0.01
  C10                         0.55      0.57      0.55      0.58         0.01
  C11                         0.55      0.58      0.63      0.67         0.01
  C12                         0.63      0.64      0.63      0.65         0.08
  C13                         0.63      0.64      0.63      0.14         0.08
  C14                         0.55      0.55      0.63      0.58         0.01
  C15                         0.63      0.63      0.63      0.56         0.08
  C16                         0.64      0.65      0.65      0.66         0.09
  C17                         0.63      0.63      0.64      0.67         0.08
  C18                         0.63      0.63      0.65      0.58         0.01
  C19                         0.56      0.65      0.57      0.58         0.01
  C20                         0.55      0.63      0.55      0.58         0.01
  C21                         0.56      0.57      0.56      0.67         0.04
  C22                         0.55      0.64      0.55      0.57         0.01
  C47                         0.63      0.64      0.63      0.66         0.01
  Cout                        0.01      0.57      0.08      0.67         0.01
  
  
  ***************
  Pumping Summary
  ***************
  
  ---------------------------------------------------------------------------------------------------------
                                                  Min       Avg       Max     Total     Power    % Time Off
                        Percent   Number of      Flow      Flow      Flow    Volume     Usage    Pump Curve
  Pump                 Utilized   Start-Ups       CMS       CMS       CMS  10^6 ltr     Kw-hr    Low   High
  ---------------------------------------------------------------------------------------------------------
  P1                       0.00           0      0.00      0.00      0.00     0.000      0.00    0.0    0.0
  

  Analysis begun on:  Mon Dec  2 16:55:07 2024
  Analysis ended on:  Mon Dec  2 16:55:07 2024
  Total elapsed time: < 1 sec