
  EPA STORM WATER MANAGEMENT MODEL - VERSION 5.2 (Build 5.2.4)
  PYSWMM TOOLKIT API - VERSION v1.0 (2023-11-27)
  ------------------------------------------------------------

  WARNING 04: minimum elevation drop used for Conduit C23
  WARNING 04: minimum elevation drop used for Conduit C24
  WARNING 04: minimum elevation drop used for Conduit C25
  WARNING 04: minimum elevation drop used for Conduit C26
  WARNING 04: minimum elevation drop used for Conduit C27
  WARNING 04: minimum elevation drop used for Conduit C28
  WARNING 04: minimum elevation drop used for Conduit C29
  WARNING 04: minimum elevation drop used for Conduit C30
  WARNING 04: minimum elevation drop used for Conduit C31
  WARNING 04: minimum elevation drop used for Conduit C32
  WARNING 04: minimum elevation drop used for Conduit C33
  WARNING 04: minimum elevation drop used for Conduit C34
  WARNING 04: minimum elevation drop used for Conduit C35
  WARNING 04: minimum elevation drop used for Conduit C36
  WARNING 04: minimum elevation drop used for Conduit C37
  WARNING 04: minimum elevation drop used for Conduit C38
  WARNING 04: minimum elevation drop used for Conduit C39
  WARNING 04: minimum elevation drop used for Conduit C40
  WARNING 04: minimum elevation drop used for Conduit C41
  WARNING 04: minimum elevation drop used for Conduit C43
  WARNING 04: minimum elevation drop used for Conduit C44
  WARNING 04: minimum elevation drop used for Conduit C45
  WARNING 04: minimum elevation drop used for Conduit C46
  WARNING 04: minimum elevation drop used for Conduit C48
  WARNING 04: minimum elevation drop used for Conduit C42
  WARNING 04: minimum elevation drop used for Conduit C50
  WARNING 04: minimum elevation drop used for Conduit C49
  WARNING 04: minimum elevation drop used for Conduit C01
  WARNING 04: minimum elevation drop used for Conduit C02
  WARNING 04: minimum elevation drop used for Conduit C03
  WARNING 04: minimum elevation drop used for Conduit C04
  WARNING 04: minimum elevation drop used for Conduit C05
  WARNING 04: minimum elevation drop used for Conduit C06
  WARNING 04: minimum elevation drop used for Conduit C07
  WARNING 04: minimum elevation drop used for Conduit C08
  WARNING 04: minimum elevation drop used for Conduit C09
  WARNING 04: minimum elevation drop used for Conduit C10
  WARNING 04: minimum elevation drop used for Conduit C11
  WARNING 04: minimum elevation drop used for Conduit C12
  WARNING 04: minimum elevation drop used for Conduit C13
  WARNING 04: minimum elevation drop used for Conduit C14
  WARNING 04: minimum elevation drop used for Conduit C15
  WARNING 04: minimum elevation drop used for Conduit C16
  WARNING 04: minimum elevation drop used for Conduit C17
  WARNING 04: minimum elevation drop used for Conduit C18
  WARNING 04: minimum elevation drop used for Conduit C19
  WARNING 04: minimum elevation drop used for Conduit C20
  WARNING 04: minimum elevation drop used for Conduit C21
  WARNING 04: minimum elevation drop used for Conduit C22
  WARNING 04: minimum elevation drop used for Conduit C47
  WARNING 04: minimum elevation drop used for Conduit Cout
  
  ****************
  Analysis Options
  ****************
  Flow Units ............... CMS
  Process Models:
    Rainfall/Runoff ........ YES
    RDII ................... NO
    Snowmelt ............... NO
    Groundwater ............ NO
    Flow Routing ........... YES
    Ponding Allowed ........ NO
    Water Quality .......... NO
  Infiltration Method ...... HORTON
  Flow Routing Method ...... DYNWAVE
  Surcharge Method ......... EXTRAN
  Starting Date ............ 08/30/2013 08:00:00
  Ending Date .............. 08/30/2013 09:40:00
  Antecedent Dry Days ...... 0.0
  Report Time Step ......... 00:10:00
  Wet Time Step ............ 00:05:00
  Dry Time Step ............ 01:00:00
  Routing Time Step ........ 300.00 sec
  Variable Time Step ....... YES
  Maximum Trials ........... 8
  Number of Threads ........ 1
  Head Tolerance ........... 0.001524 m
  
  
  *********************
  Rainfall File Summary
  *********************
  Station    First        Last         Recording   Periods    Periods    Periods
  ID         Date         Date         Frequency  w/Precip    Missing    Malfunc.
  -------------------------------------------------------------------------------
  84         08/30/2013   08/30/2013      10 min        11          0          0

  
  
  **************************        Volume         Depth
  Runoff Quantity Continuity     hectare-m            mm
  **************************     ---------       -------
  Total Precipitation ......       275.744      2757.547
  Evaporation Loss .........         0.000         0.000
  Infiltration Loss ........         0.000         0.000
  Surface Runoff ...........       262.614      2626.243
  Final Storage ............        16.496       164.962
  Continuity Error (%) .....        -1.221
  
  
  **************************        Volume        Volume
  Flow Routing Continuity        hectare-m      10^6 ltr
  **************************     ---------     ---------
  Dry Weather Inflow .......         0.000         0.000
  Wet Weather Inflow .......       248.889      2488.920
  Groundwater Inflow .......         0.000         0.000
  RDII Inflow ..............         0.000         0.000
  External Inflow ..........         0.000         0.000
  External Outflow .........         4.237        42.372
  Flooding Loss ............       243.506      2435.084
  Evaporation Loss .........         0.000         0.000
  Exfiltration Loss ........         0.000         0.000
  Initial Stored Volume ....         0.046         0.463
  Final Stored Volume ......         1.883        18.831
  Continuity Error (%) .....        -0.277
  
  
  *************************
  Highest Continuity Errors
  *************************
  Node J3 (-47.90%)
  Node J30 (-35.57%)
  Node J17 (-11.71%)
  Node J28 (6.18%)
  Node J24 (5.24%)
  
  
  ***************************
  Time-Step Critical Elements
  ***************************
  Link Cout (97.55%)
  
  
  ********************************
  Highest Flow Instability Indexes
  ********************************
  Link C29 (5)
  Link C32 (5)
  Link C31 (4)
  Link C30 (4)
  Link C38 (4)
  
  
  *********************************
  Most Frequent Nonconverging Nodes
  *********************************
  Node OF (3.68%)
  Node J18 (1.96%)
  Node J32 (1.72%)
  Node J26 (1.72%)
  Node J16 (1.47%)
  
  
  *************************
  Routing Time Step Summary
  *************************
  Minimum Time Step           :     6.52 sec
  Average Time Step           :    14.70 sec
  Maximum Time Step           :   300.00 sec
  % of Time in Steady State   :     0.00
  Average Iterations per Step :     2.32
  % of Steps Not Converging   :     3.68
  Time Step Frequencies       :
     300.000 - 83.462 sec      :     0.25 %
     83.462 - 23.220 sec      :     0.00 %
     23.220 -  6.460 sec      :    99.75 %
      6.460 -  1.797 sec      :     0.00 %
      1.797 -  0.500 sec      :     0.00 %
  
  
  ***************************
  Subcatchment Runoff Summary
  ***************************
  
  ------------------------------------------------------------------------------------------------------------------------------
                            Total      Total      Total      Total     Imperv       Perv      Total       Total     Peak  Runoff
                           Precip      Runon       Evap      Infil     Runoff     Runoff     Runoff      Runoff   Runoff   Coeff
  Subcatchment                 mm         mm         mm         mm         mm         mm         mm    10^6 ltr      CMS
  ------------------------------------------------------------------------------------------------------------------------------
  S1                      2757.55       0.00       0.00       0.00      27.31    2730.25    2757.56      695.63   228.56   1.000
  S2                      2757.55       0.00       0.00       0.00      25.09    2739.72    2764.82       21.48     7.04   1.003
  S3                      2757.55       0.00       0.00       0.00      25.09    2732.45    2757.55        5.71     1.88   1.000
  S4                      2757.55       0.00       0.00       0.00      25.09    2732.45    2757.55        5.65     1.86   1.000
  S5                      2757.55       0.00       0.00       0.00      25.09    2732.45    2757.55        8.25     2.71   1.000
  S6                      2757.55       0.00       0.00       0.00      25.09    2732.45    2757.55       22.72     7.47   1.000
  S7                      2757.55       0.00       0.00       0.00      25.09    2732.45    2757.55        4.27     1.40   1.000
  S8                      2757.55       0.00       0.00       0.00      25.09    2732.45    2757.55       13.43     4.41   1.000
  S9                      2757.55       0.00       0.00       0.00      25.09    2732.45    2757.55       16.60     5.45   1.000
  S10                     2757.55       0.00       0.00       0.00       0.00    2732.45    2732.45        3.85     1.27   0.991
  S11                     2757.55       0.00       0.00       0.00      25.09    2694.54    2719.64       39.79    13.18   0.986
  S12                     2757.55       0.00       0.00       0.00      25.09    2732.45    2757.55       23.94     7.86   1.000
  S13                     2757.55       0.00       0.00       0.00       0.00    2732.45    2732.45       23.06     7.58   0.991
  S14                     2757.55       0.00       0.00       0.00      23.16    2734.38    2757.55       22.14     7.28   1.000
  S15                     2757.55       0.00       0.00       0.00      23.16    2734.38    2757.55       20.68     6.80   1.000
  S16                     2757.55       0.00       0.00       0.00      21.23    2741.81    2763.04       48.80    16.00   1.002
  S17                     2757.55       0.00       0.00       0.00      21.23    2597.15    2618.38       89.16    29.51   0.950
  S18                     2757.55       0.00       0.00       0.00      21.23    2737.83    2759.06        3.56     1.17   1.001
  S19                     2757.55       0.00       0.00       0.00      21.23       0.00      21.23        0.05     0.02   0.008
  S20                     2757.55       0.00       0.00       0.00      21.23    2737.55    2758.78        2.81     0.92   1.000
  S21                     2757.55       0.00       0.00       0.00      21.23    2725.90    2747.14       45.55    15.00   0.996
  S22                     2757.55       0.00       0.00       0.00      21.23    2736.32    2757.56        0.91     0.30   1.000
  S23                     2757.55       0.00       0.00       0.00      21.23    2736.31    2757.55        1.08     0.35   1.000
  S24                     2757.55       0.00       0.00       0.00      21.23    2736.31    2757.55        1.35     0.44   1.000
  S25                     2757.55       0.00       0.00       0.00      21.23    2736.31    2757.55        1.63     0.53   1.000
  S26                     2757.55       0.00       0.00       0.00      21.23    2736.31    2757.55        1.90     0.63   1.000
  S27                     2757.55       0.00       0.00       0.00      21.23    2740.83    2762.07       22.95     7.53   1.002
  S28                     2757.55       0.00       0.00       0.00      21.23    2729.29    2750.52       24.42     8.04   0.997
  S29                     2757.55       0.00       0.00       0.00      21.23    2737.12    2758.36        2.54     0.83   1.000
  S30                     2757.55       0.00       0.00       0.00      21.23    2550.66    2571.89      163.83    53.76   0.933
  S31                     2757.55       0.00       0.00       0.00      22.06    2735.49    2757.55       37.37    12.28   1.000
  S32                     2757.55       0.00       0.00       0.00      22.06    2735.49    2757.55       11.50     3.78   1.000
  S33                     2757.55       0.00       0.00       0.00      25.92    2731.63    2757.55        8.58     2.82   1.000
  S34                     2757.55       0.00       0.00       0.00      25.92    2731.63    2757.55        9.07     2.98   1.000
  S35                     2757.55       0.00       0.00       0.00      25.09    2732.45    2757.55       11.09     3.64   1.000
  S36                     2757.55       0.00       0.00       0.00      25.09    2732.45    2757.55        4.55     1.49   1.000
  S37                     2757.55       0.00       0.00       0.00      25.09    2732.45    2757.54        9.93     3.26   1.000
  S38                     2757.55       0.00       0.00       0.00      25.09    2732.45    2757.55        0.44     0.14   1.000
  S39                     2757.55       0.00       0.00       0.00      25.09    2732.45    2757.55       11.31     3.71   1.000
  S40                     2757.55       0.00       0.00       0.00      25.09    2732.45    2757.55        3.89     1.28   1.000
  S41                     2757.55       0.00       0.00       0.00      25.09    2732.45    2757.55        6.26     2.06   1.000
  S42                     2757.55       0.00       0.00       0.00      25.09    2732.45    2757.55        8.71     2.86   1.000
  S43                     2757.55       0.00       0.00       0.00      25.09    2732.45    2757.55       19.85     6.52   1.000
  S44                     2757.55       0.00       0.00       0.00      25.09    2732.45    2757.55       14.39     4.73   1.000
  S45                     2757.55       0.00       0.00       0.00      25.09    2732.45    2757.55        1.46     0.48   1.000
  S46                     2757.55       0.00       0.00       0.00      25.09    2732.45    2757.55       13.35     4.39   1.000
  S47                     2757.55       0.00       0.00       0.00      25.09    2732.45    2757.55       26.97     8.86   1.000
  S48                     2757.55       0.00       0.00       0.00      25.09    2732.45    2757.55       31.16    10.24   1.000
  S49                     2757.55       0.00       0.00       0.00      25.09    2732.45    2757.55       18.94     6.22   1.000
  S50                     2757.55       0.00       0.00       0.00      25.09    2732.45    2757.55       15.61     5.13   1.000
  S51                     2757.55       0.00       0.00       0.00      25.09    2732.45    2757.55        9.21     3.03   1.000
  S52                     2757.55       0.00       0.00       0.00      25.09    2732.45    2757.55       24.40     8.02   1.000
  S53                     2757.55       0.00       0.00       0.00      25.09    2726.74    2751.84       33.52    11.03   0.998
  S54                     2757.55       0.00       0.00       0.00      25.09    2740.42    2765.52       12.64     4.14   1.003
  S55                     2757.55       0.00       0.00       0.00      25.09    2732.45    2757.55        1.05     0.34   1.000
  S56                     2757.55       0.00       0.00       0.00      25.09    2732.87    2757.96        1.05     0.34   1.000
  S57                     2757.55       0.00       0.00       0.00      25.09    2732.45    2757.55       14.26     4.68   1.000
  S58                     2757.55       0.00       0.00       0.00      25.09    2732.45    2757.55       18.31     6.02   1.000
  S59                     2757.55       0.00       0.00       0.00      25.09    2732.45    2757.55       17.79     5.84   1.000
  S60                     2757.55       0.00       0.00       0.00      21.23    2743.01    2764.25       10.86     3.56   1.002
  S61                     2757.55       0.00       0.00       0.00      21.23       0.00      21.23        0.07     0.02   0.008
  S62                     2757.55       0.00       0.00       0.00      21.23    2518.59    2539.83      136.11    44.33   0.921
  S63                     2757.55       0.00       0.00       0.00      21.23    2736.31    2757.55       25.92     8.52   1.000
  S64                     2757.55       0.00       0.00       0.00      21.23    2736.31    2757.55       70.18    23.06   1.000
  S65                     2757.55       0.00       0.00       0.00      21.23    2736.31    2757.55       11.20     3.68   1.000
  S66                     2757.55       0.00       0.00       0.00      21.23    2736.31    2757.55       18.06     5.93   1.000
  S67                     2757.55       0.00       0.00       0.00      21.23    2736.31    2757.55       33.75    11.09   1.000
  S68                     2757.55       0.00       0.00       0.00      21.23    2736.31    2757.55       39.57    13.00   1.000
  S69                     2757.55       0.00       0.00       0.00      21.23       0.00      21.23        0.53     0.17   0.008
  S70                     2757.55       0.00       0.00       0.00      21.23    2724.29    2745.53       71.85    23.68   0.996
  S71                     2757.55       0.00       0.00       0.00      25.09    2732.45    2757.55       40.56    13.33   1.000
  S72                     2757.55       0.00       0.00       0.00      21.23    2743.16    2764.39       13.71     4.49   1.002
  S73                     2757.55       0.00       0.00       0.00      21.24    2736.31    2757.55       57.80    18.99   1.000
  S74                     2757.55       0.00       0.00       0.00      21.23       0.00      21.23        0.14     0.05   0.008
  S75                     2757.55       0.00       0.00       0.00      21.23    2736.31    2757.55        1.85     0.61   1.000
  S76                     2757.55       0.00       0.00       0.00      21.23    2736.31    2757.55       36.43    11.97   1.000
  S77                     2757.55       0.00       0.00       0.00      21.23    2736.31    2757.55       29.48     9.69   1.000
  S78                     2757.55       0.00       0.00       0.00      21.23    2736.31    2757.55       21.37     7.02   1.000
  S79                     2757.55       0.00       0.00       0.00      25.09    2732.45    2757.55       18.72     6.15   1.000
  S80                     2757.55       0.00       0.00       0.00      21.23    2740.61    2761.85        7.62     2.50   1.002
  S81                     2757.55       0.00       0.00       0.00      21.23    2736.31    2757.55       31.19    10.25   1.000
  S82                     2757.55       0.00       0.00       0.00      21.23    2736.31    2757.55       30.44    10.00   1.000
  S83                     2757.55       0.00       0.00       0.00      21.23    2736.31    2757.55       19.58     6.43   1.000
  S84                     2757.55       0.00       0.00       0.00      25.09    2732.45    2757.55       12.80     4.20   1.000
  S85                     2757.55       0.00       0.00       0.00      25.09    2733.01    2758.10       34.09    11.19   1.000
  S86                     2757.55       0.00       0.00       0.00       0.00    2732.45    2732.45       31.61    10.39   0.991
  S87                     2757.55       0.00       0.00       0.00      25.09    2732.45    2757.55       34.25    11.25   1.000
  S88                     2757.55       0.00       0.00       0.00      25.09    2732.45    2757.55        6.18     2.03   1.000
  S89                     2757.55       0.00       0.00       0.00      25.10    2732.45    2757.55       27.88     9.16   1.000
  S90                     2757.55       0.00       0.00       0.00       0.00    2732.45    2732.45       13.42     4.41   0.991
  S91                     2757.55       0.00       0.00       0.00      25.09    2732.45    2757.55        4.55     1.49   1.000
  
  
  ******************
  Node Depth Summary
  ******************
  
  ---------------------------------------------------------------------------------
                                 Average  Maximum  Maximum  Time of Max    Reported
                                   Depth    Depth      HGL   Occurrence   Max Depth
  Node                 Type       Meters   Meters   Meters  days hr:min      Meters
  ---------------------------------------------------------------------------------
  J7                   JUNCTION     2.49     2.50     2.50     0  00:05        2.50
  J13                  JUNCTION     2.49     2.50     2.50     0  00:05        2.50
  J19                  JUNCTION     2.46     2.50     2.50     0  00:05        2.50
  J25                  JUNCTION     2.49     2.50     2.50     0  00:05        2.50
  J1                   JUNCTION     2.49     2.50     2.50     0  00:05        2.50
  J2                   JUNCTION     2.49     2.50     2.50     0  00:05        2.50
  J3                   JUNCTION     2.48     2.50     2.50     0  00:05        2.50
  J4                   JUNCTION     2.49     2.50     2.50     0  00:05        2.50
  J5                   JUNCTION     2.49     2.50     2.50     0  00:05        2.50
  J6                   JUNCTION     2.48     2.50     2.50     0  00:05        2.50
  J8                   JUNCTION     2.49     2.50     2.50     0  00:05        2.50
  J9                   JUNCTION     2.49     2.50     2.50     0  00:05        2.50
  J10                  JUNCTION     2.49     2.50     2.50     0  00:05        2.50
  J11                  JUNCTION     2.49     2.50     2.50     0  00:05        2.50
  J12                  JUNCTION     2.49     2.50     2.50     0  00:05        2.50
  J14                  JUNCTION     2.49     2.50     2.50     0  00:05        2.50
  J15                  JUNCTION     2.48     2.50     2.50     0  00:05        2.50
  J16                  JUNCTION     2.49     2.50     2.50     0  00:05        2.50
  J17                  JUNCTION     2.49     2.50     2.50     0  00:05        2.50
  J18                  JUNCTION     2.49     2.50     2.50     0  00:05        2.50
  J20                  JUNCTION     2.49     2.50     2.50     0  00:05        2.50
  J21                  JUNCTION     2.49     2.50     2.50     0  00:05        2.50
  J22                  JUNCTION     2.49     2.50     2.50     0  00:05        2.50
  J23                  JUNCTION     2.49     2.50     2.50     0  00:05        2.50
  J24                  JUNCTION     2.49     2.50     2.50     0  00:05        2.50
  J26                  JUNCTION     2.49     2.50     2.50     0  00:05        2.50
  J27                  JUNCTION     2.48     2.50     2.50     0  00:06        2.50
  J29                  JUNCTION     2.49     2.50     2.50     0  00:05        2.50
  J30                  JUNCTION     2.46     2.50     2.50     0  00:06        2.50
  J31                  JUNCTION     2.49     2.50     2.50     0  00:05        2.50
  J33                  JUNCTION     2.49     2.50     2.50     0  00:05        2.50
  J32                  JUNCTION     2.49     2.50     2.50     0  00:05        2.50
  J28                  JUNCTION     2.49     2.50     2.50     0  00:05        2.50
  OF                   OUTFALL      1.35     1.41     1.41     0  00:05        1.37
  
  
  *******************
  Node Inflow Summary
  *******************
  
  -------------------------------------------------------------------------------------------------
                                  Maximum  Maximum                  Lateral       Total        Flow
                                  Lateral    Total  Time of Max      Inflow      Inflow     Balance
                                   Inflow   Inflow   Occurrence      Volume      Volume       Error
  Node                 Type           CMS      CMS  days hr:min    10^6 ltr    10^6 ltr     Percent
  -------------------------------------------------------------------------------------------------
  J7                   JUNCTION    59.337   59.434     0  01:00         172         174       0.424
  J13                  JUNCTION     5.169    5.778     0  01:35        14.9        16.6      -2.613
  J19                  JUNCTION   244.957  244.957     0  01:00         706         709       0.504
  J25                  JUNCTION    29.505   29.509     0  01:00        84.5        84.5      -0.856
  J1                   JUNCTION    20.562   20.817     0  00:55        59.3        63.5       2.825
  J2                   JUNCTION    15.448   15.574     0  00:55        44.6        46.6      -0.999
  J3                   JUNCTION     0.689    9.944     0  00:05        1.99        5.99     -32.385
  J4                   JUNCTION    44.731   44.851     0  00:55         129         132       1.234
  J5                   JUNCTION    36.984   37.705     0  01:35         107         115       1.705
  J6                   JUNCTION    16.182   18.274     0  01:35        46.7        53.3       1.073
  J8                   JUNCTION    24.898   25.000     0  00:55        71.8        72.8       0.629
  J9                   JUNCTION    11.195   11.371     0  01:00        32.3        34.7      -3.508
  J10                  JUNCTION    16.707   16.976     0  01:35        48.2        49.9      -1.160
  J11                  JUNCTION    17.949   18.432     0  01:35        51.8        57.4       1.143
  J12                  JUNCTION    18.990   19.795     0  01:35        54.8        60.4       1.629
  J14                  JUNCTION    16.091   16.091     0  01:00        46.4          47       1.620
  J15                  JUNCTION    23.022   23.364     0  01:00        66.3        70.2      -3.145
  J16                  JUNCTION    13.328   13.628     0  01:35        38.4        40.5       0.517
  J17                  JUNCTION     0.173    4.062     0  00:05         0.5        4.43     -10.484
  J18                  JUNCTION     0.607    2.004     0  00:05        1.75        3.75      -3.491
  J20                  JUNCTION    44.942   45.012     0  01:00         129         130       0.606
  J21                  JUNCTION    14.853   15.080     0  00:55        42.8          47       3.333
  J22                  JUNCTION    30.472   30.589     0  01:00        87.7        89.9       0.520
  J23                  JUNCTION    15.999   16.223     0  01:00        46.2        50.2       3.362
  J24                  JUNCTION     2.110    3.399     0  00:05        6.09        7.16       5.529
  J26                  JUNCTION    13.119   13.226     0  00:55        37.8          39       0.109
  J27                  JUNCTION    11.507   11.732     0  00:55        33.2        35.5      -1.157
  J29                  JUNCTION    18.873   19.127     0  00:55        54.4        57.8       1.735
  J30                  JUNCTION     0.000   16.884     0  00:05           0         5.8     -26.239
  J31                  JUNCTION    53.763   53.879     0  01:00         155         158       0.761
  J33                  JUNCTION    18.569   18.569     0  01:00        53.6        53.6       0.504
  J32                  JUNCTION     8.471    8.599     0  00:55        24.4        26.1      -0.994
  J28                  JUNCTION    13.545   40.983     0  00:05        39.1        49.9       6.588
  OF                   OUTFALL      0.000    7.967     0  00:05           0        42.4       0.000
  
  
  **********************
  Node Surcharge Summary
  **********************
  
  Surcharging occurs when water rises above the top of the highest conduit.
  ---------------------------------------------------------------------
                                               Max. Height   Min. Depth
                                   Hours       Above Crown    Below Rim
  Node                 Type      Surcharged         Meters       Meters
  ---------------------------------------------------------------------
  J7                   JUNCTION        1.67          0.850        0.000
  J13                  JUNCTION        1.67          0.850        0.000
  J19                  JUNCTION        1.65          0.850        0.000
  J25                  JUNCTION        1.67          0.850        0.000
  J1                   JUNCTION        1.67          0.850        0.000
  J2                   JUNCTION        1.67          0.850        0.000
  J3                   JUNCTION        1.65          0.850        0.000
  J4                   JUNCTION        1.67          0.850        0.000
  J5                   JUNCTION        1.67          0.850        0.000
  J6                   JUNCTION        1.67          0.850        0.000
  J8                   JUNCTION        1.67          0.850        0.000
  J9                   JUNCTION        1.67          0.850        0.000
  J10                  JUNCTION        1.67          0.850        0.000
  J11                  JUNCTION        1.67          0.850        0.000
  J12                  JUNCTION        1.67          0.850        0.000
  J14                  JUNCTION        1.67          0.850        0.000
  J15                  JUNCTION        1.66          0.850        0.000
  J16                  JUNCTION        1.67          0.850        0.000
  J17                  JUNCTION        1.67          0.850        0.000
  J18                  JUNCTION        1.67          0.850        0.000
  J20                  JUNCTION        1.67          0.850        0.000
  J21                  JUNCTION        1.67          0.850        0.000
  J22                  JUNCTION        1.67          0.850        0.000
  J23                  JUNCTION        1.67          0.850        0.000
  J24                  JUNCTION        1.67          0.850        0.000
  J26                  JUNCTION        1.67          0.850        0.000
  J27                  JUNCTION        1.67          0.850        0.000
  J29                  JUNCTION        1.67          0.850        0.000
  J30                  JUNCTION        1.57          0.850        0.000
  J31                  JUNCTION        1.67          0.850        0.000
  J33                  JUNCTION        1.67          0.850        0.000
  J32                  JUNCTION        1.67          0.850        0.000
  J28                  JUNCTION        1.67          0.850        0.000
  
  
  *********************
  Node Flooding Summary
  *********************
  
  Flooding refers to all water that overflows a node, whether it ponds or not.
  --------------------------------------------------------------------------
                                                             Total   Maximum
                                 Maximum   Time of Max       Flood    Ponded
                        Hours       Rate    Occurrence      Volume     Depth
  Node                 Flooded       CMS   days hr:min    10^6 ltr    Meters
  --------------------------------------------------------------------------
  J7                      1.67    59.220      0  01:00     171.900     0.000
  J13                     1.49     5.157      0  01:00      14.465     0.000
  J19                     1.58   237.485      0  01:00     664.070     0.000
  J25                     1.57    29.261      0  01:00      82.249     0.000
  J1                      1.52    20.691      0  00:55      60.414     0.000
  J2                      1.50    15.344      0  01:00      42.961     0.000
  J3                      1.48     7.447      0  00:05       4.017     0.000
  J4                      1.49    44.492      0  01:00     124.546     0.000
  J5                      1.58    37.104      0  00:55     110.433     0.000
  J6                      1.49    17.125      0  01:35      46.668     0.000
  J8                      1.52    24.762      0  01:00      69.160     0.000
  J9                      1.52    11.141      0  01:00      30.997     0.000
  J10                     1.49    16.529      0  01:00      45.926     0.000
  J11                     1.58    17.948      0  01:00      52.392     0.000
  J12                     1.58    19.123      0  00:55      58.063     0.000
  J14                     1.55    15.874      0  01:39      43.555     0.000
  J15                     1.56    23.243      0  01:00      67.746     0.000
  J16                     1.49    13.138      0  01:35      35.919     0.000
  J17                     1.50     0.602      0  00:09       1.758     0.000
  J18                     1.49     0.716      0  01:39       1.779     0.000
  J20                     1.67    44.909      0  01:00     128.938     0.000
  J21                     1.58    14.951      0  00:55      43.366     0.000
  J22                     1.67    30.345      0  01:00      86.076     0.000
  J23                     1.58    16.155      0  01:00      47.930     0.000
  J24                     1.53     2.092      0  01:00       5.803     0.000
  J26                     1.51    13.102      0  01:00      36.837     0.000
  J27                     1.49    11.601      0  00:55      33.243     0.000
  J29                     1.49    18.872      0  01:00      53.652     0.000
  J30                     1.49    16.106      0  00:06       5.134     0.000
  J31                     1.65    53.635      0  01:00     156.067     0.000
  J33                     1.60    18.453      0  01:00      51.949     0.000
  J32                     1.50     8.371      0  01:00      23.252     0.000
  J28                     1.60    31.380      0  00:05      49.730     0.000
  
  
  ***********************
  Outfall Loading Summary
  ***********************
  
  -----------------------------------------------------------
                         Flow       Avg       Max       Total
                         Freq      Flow      Flow      Volume
  Outfall Node           Pcnt       CMS       CMS    10^6 ltr
  -----------------------------------------------------------
  OF                   100.00     7.227     7.967      42.371
  -----------------------------------------------------------
  System               100.00     7.227     7.967      42.371
  
  
  ********************
  Link Flow Summary
  ********************
  
  -----------------------------------------------------------------------------
                                 Maximum  Time of Max   Maximum    Max/    Max/
                                  |Flow|   Occurrence   |Veloc|    Full    Full
  Link                 Type          CMS  days hr:min     m/sec    Flow   Depth
  -----------------------------------------------------------------------------
  P1                   PUMP        0.000     0  00:00                          
  C23                  CONDUIT     3.478     0  00:05      1.63   30.26    1.00
  C24                  CONDUIT     1.482     0  00:05      0.69   12.84    1.00
  C25                  CONDUIT     0.365     0  01:27      0.17    2.92    1.00
  C26                  CONDUIT     6.624     0  00:05      3.10   51.82    1.00
  C27                  CONDUIT     1.901     0  00:05      0.89   15.64    1.00
  C28                  CONDUIT    13.372     0  00:05      6.25   92.16    1.00
  C29                  CONDUIT     1.946     0  00:05      0.91   13.71    1.00
  C30                  CONDUIT     1.945     0  00:05      0.91   17.09    1.00
  C31                  CONDUIT     3.343     0  00:05      1.56   29.25    1.00
  C32                  CONDUIT    15.394     0  00:05      7.20   99.50    1.00
  C33                  CONDUIT     5.219     0  00:05      2.61   30.54    1.00
  C34                  CONDUIT     5.224     0  00:05      2.44   41.58    1.00
  C35                  CONDUIT     2.831     0  00:05      1.32   30.11    1.00
  C36                  CONDUIT     3.971     0  00:05      1.86   37.47    1.00
  C37                  CONDUIT    10.001     0  00:05      4.68   68.66    1.00
  C38                  CONDUIT     3.747     0  00:05      1.75   26.12    1.00
  C39                  CONDUIT     4.612     0  00:05      2.31   29.23    1.00
  C40                  CONDUIT     4.250     0  00:05      1.99   30.30    1.00
  C41                  CONDUIT     1.752     0  00:05      0.82   13.59    1.00
  C43                  CONDUIT     2.130     0  00:05      1.00   16.24    1.00
  C44                  CONDUIT     1.707     0  00:06      0.80   14.57    1.00
  C45                  CONDUIT     6.484     0  00:05      3.75   55.63    1.00
  C46                  CONDUIT     9.953     0  00:05      4.65   82.47    1.00
  C48                  CONDUIT     5.018     0  01:30      2.35   39.62    1.00
  C42                  CONDUIT     5.711     0  00:05      3.30   45.28    1.00
  C50                  CONDUIT     2.848     0  00:05      1.33   27.51    1.00
  C49                  CONDUIT     2.565     0  00:05      1.20   22.39    1.00
  C01                  CONDUIT     0.375     0  00:05      0.18    3.08    1.00
  C02                  CONDUIT     4.210     0  00:05      1.97   33.31    1.00
  C03                  CONDUIT     3.307     0  00:05      1.55   26.41    1.00
  C04                  CONDUIT     3.410     0  00:05      1.59   26.82    1.00
  C05                  CONDUIT     3.054     0  00:05      1.43   24.35    1.00
  C06                  CONDUIT     0.382     0  00:05      0.18    3.35    1.00
  C07                  CONDUIT    11.128     0  00:05      5.20   97.61    1.00
  C08                  CONDUIT     2.554     0  00:05      1.19   20.90    1.00
  C09                  CONDUIT     2.090     0  00:05      0.98   18.30    1.00
  C10                  CONDUIT     2.015     0  00:05      0.94   16.07    1.00
  C11                  CONDUIT     0.671     0  00:05      0.31    5.89    1.00
  C12                  CONDUIT     1.385     0  00:05      0.65   11.93    1.00
  C13                  CONDUIT     0.616     0  01:30      0.29    5.36    1.00
  C14                  CONDUIT     2.122     0  00:05      0.99   16.86    1.00
  C15                  CONDUIT     1.952     0  00:05      0.91   15.51    1.00
  C16                  CONDUIT     1.034     0  00:05      0.48    9.08    1.00
  C17                  CONDUIT     5.702     0  00:05      2.67   50.33    1.00
  C18                  CONDUIT     2.951     0  00:05      1.38   26.23    1.00
  C19                  CONDUIT     1.536     0  01:30      0.72   12.20    1.00
  C20                  CONDUIT     1.776     0  00:05      0.83   15.81    1.00
  C21                  CONDUIT     2.706     0  00:05      1.27   25.56    1.00
  C22                  CONDUIT     4.810     0  00:05      2.25   37.97    1.00
  C47                  CONDUIT     2.252     0  00:06      1.05   23.15    1.00
  Cout                 CONDUIT     7.967     0  00:05      3.85   62.91    0.93
  
  
  ***************************
  Flow Classification Summary
  ***************************
  
  -------------------------------------------------------------------------------------
                      Adjusted    ---------- Fraction of Time in Flow Class ---------- 
                       /Actual         Up    Down  Sub   Sup   Up    Down  Norm  Inlet 
  Conduit               Length    Dry  Dry   Dry   Crit  Crit  Crit  Crit  Ltd   Ctrl  
  -------------------------------------------------------------------------------------
  C23                     1.00   0.00  0.00  0.00  1.00  0.00  0.00  0.00  0.00  0.00
  C24                     1.00   0.00  0.00  0.00  1.00  0.00  0.00  0.00  0.00  0.00
  C25                     1.00   0.00  0.00  0.00  1.00  0.00  0.00  0.00  0.00  0.00
  C26                     1.00   0.00  0.00  0.00  1.00  0.00  0.00  0.00  0.00  0.00
  C27                     1.00   0.00  0.00  0.00  1.00  0.00  0.00  0.00  0.00  0.00
  C28                     1.00   0.00  0.00  0.00  1.00  0.00  0.00  0.00  0.00  0.00
  C29                     1.00   0.00  0.00  0.00  1.00  0.00  0.00  0.00  0.00  0.00
  C30                     1.00   0.00  0.00  0.00  1.00  0.00  0.00  0.00  0.00  0.00
  C31                     1.00   0.00  0.00  0.00  1.00  0.00  0.00  0.00  0.00  0.00
  C32                     1.00   0.00  0.00  0.00  1.00  0.00  0.00  0.00  0.00  0.00
  C33                     1.00   0.00  0.00  0.00  1.00  0.00  0.00  0.00  0.00  0.00
  C34                     1.00   0.00  0.00  0.00  1.00  0.00  0.00  0.00  0.00  0.00
  C35                     1.00   0.00  0.00  0.00  1.00  0.00  0.00  0.00  0.00  0.00
  C36                     1.00   0.00  0.00  0.00  1.00  0.00  0.00  0.00  0.00  0.00
  C37                     1.00   0.00  0.00  0.00  1.00  0.00  0.00  0.00  0.00  0.00
  C38                     1.00   0.00  0.00  0.00  1.00  0.00  0.00  0.00  0.00  0.00
  C39                     1.00   0.00  0.00  0.00  1.00  0.00  0.00  0.00  0.00  0.00
  C40                     1.00   0.00  0.00  0.00  1.00  0.00  0.00  0.00  0.00  0.00
  C41                     1.00   0.00  0.00  0.00  1.00  0.00  0.00  0.00  0.00  0.00
  C43                     1.00   0.00  0.00  0.00  1.00  0.00  0.00  0.00  0.00  0.00
  C44                     1.00   0.00  0.00  0.00  1.00  0.00  0.00  0.00  0.00  0.00
  C45                     1.00   0.00  0.00  0.00  1.00  0.00  0.00  0.00  0.00  0.00
  C46                     1.00   0.00  0.00  0.00  1.00  0.00  0.00  0.00  0.05  0.00
  C48                     1.00   0.00  0.00  0.00  1.00  0.00  0.00  0.00  0.00  0.00
  C42                     1.00   0.00  0.00  0.00  1.00  0.00  0.00  0.00  0.00  0.00
  C50                     1.00   0.00  0.00  0.00  1.00  0.00  0.00  0.00  0.00  0.00
  C49                     1.00   0.00  0.00  0.00  1.00  0.00  0.00  0.00  0.00  0.00
  C01                     1.00   0.00  0.00  0.00  1.00  0.00  0.00  0.00  0.00  0.00
  C02                     1.00   0.00  0.00  0.00  1.00  0.00  0.00  0.00  0.00  0.00
  C03                     1.00   0.00  0.00  0.00  1.00  0.00  0.00  0.00  0.00  0.00
  C04                     1.00   0.00  0.00  0.00  1.00  0.00  0.00  0.00  0.00  0.00
  C05                     1.00   0.00  0.00  0.00  1.00  0.00  0.00  0.00  0.00  0.00
  C06                     1.00   0.00  0.00  0.00  1.00  0.00  0.00  0.00  0.00  0.00
  C07                     1.00   0.00  0.00  0.00  1.00  0.00  0.00  0.00  0.00  0.00
  C08                     1.00   0.00  0.00  0.00  1.00  0.00  0.00  0.00  0.00  0.00
  C09                     1.00   0.00  0.00  0.00  1.00  0.00  0.00  0.00  0.00  0.00
  C10                     1.00   0.00  0.00  0.00  1.00  0.00  0.00  0.00  0.00  0.00
  C11                     1.00   0.00  0.00  0.00  1.00  0.00  0.00  0.00  0.00  0.00
  C12                     1.00   0.00  0.00  0.00  1.00  0.00  0.00  0.00  0.00  0.00
  C13                     1.00   0.00  0.00  0.00  1.00  0.00  0.00  0.00  0.00  0.00
  C14                     1.00   0.00  0.00  0.00  1.00  0.00  0.00  0.00  0.00  0.00
  C15                     1.00   0.00  0.00  0.00  1.00  0.00  0.00  0.00  0.00  0.00
  C16                     1.00   0.00  0.00  0.00  1.00  0.00  0.00  0.00  0.00  0.00
  C17                     1.00   0.00  0.00  0.00  1.00  0.00  0.00  0.00  0.00  0.00
  C18                     1.00   0.00  0.00  0.00  1.00  0.00  0.00  0.00  0.00  0.00
  C19                     1.00   0.00  0.00  0.00  1.00  0.00  0.00  0.00  0.00  0.00
  C20                     1.00   0.00  0.00  0.00  1.00  0.00  0.00  0.00  0.00  0.00
  C21                     1.00   0.00  0.00  0.00  1.00  0.00  0.00  0.00  0.00  0.00
  C22                     1.00   0.00  0.00  0.00  1.00  0.00  0.00  0.00  0.00  0.00
  C47                     1.00   0.00  0.00  0.00  1.00  0.00  0.00  0.00  0.00  0.00
  Cout                    1.00   0.00  0.00  0.00  1.00  0.00  0.00  0.00  0.00  0.00
  
  
  *************************
  Conduit Surcharge Summary
  *************************
  
  ----------------------------------------------------------------------------
                                                           Hours        Hours 
                         --------- Hours Full --------   Above Full   Capacity
  Conduit                Both Ends  Upstream  Dnstream   Normal Flow   Limited
  ----------------------------------------------------------------------------
  C23                         1.65      1.65      1.66      0.98         0.14
  C24                         1.67      1.67      1.67      1.19         0.17
  C25                         1.66      1.66      1.67      0.25         0.06
  C26                         1.58      1.67      1.58      1.16         0.08
  C27                         1.66      1.67      1.66      0.86         0.14
  C28                         1.66      1.66      1.67      0.85         0.02
  C29                         1.67      1.67      1.67      0.74         0.14
  C30                         1.67      1.67      1.67      0.98         0.05
  C31                         1.58      1.58      1.67      1.07         0.05
  C32                         1.65      1.67      1.65      0.80         0.14
  C33                         1.65      1.65      1.67      0.96         0.06
  C34                         1.67      1.67      1.67      1.17         0.08
  C35                         1.67      1.67      1.67      1.47         0.17
  C36                         1.67      1.67      1.67      1.35         0.17
  C37                         1.67      1.67      1.67      0.83         0.02
  C38                         1.66      1.67      1.66      0.67         0.06
  C39                         1.65      1.66      1.65      0.84         0.14
  C40                         1.67      1.67      1.67      0.84         0.14
  C41                         1.67      1.67      1.67      0.74         0.07
  C43                         1.67      1.67      1.67      0.94         0.12
  C44                         1.67      1.67      1.67      0.98         0.12
  C45                         1.57      1.67      1.57      1.27         0.01
  C46                         1.57      1.57      1.66      1.22         0.01
  C48                         1.64      1.67      1.64      1.19         0.07
  C42                         1.57      1.67      1.57      0.87         0.03
  C50                         1.67      1.67      1.67      1.18         0.05
  C49                         1.66      1.66      1.67      0.99         0.04
  C01                         1.67      1.67      1.67      0.61         0.09
  C02                         1.67      1.67      1.67      0.93         0.01
  C03                         1.67      1.67      1.67      0.94         0.09
  C04                         1.66      1.67      1.66      0.84         0.01
  C05                         1.66      1.66      1.67      0.49         0.09
  C06                         1.67      1.67      1.67      0.56         0.12
  C07                         1.65      1.67      1.65      1.03         0.02
  C08                         1.65      1.67      1.65      0.94         0.09
  C09                         1.67      1.67      1.67      1.26         0.17
  C10                         1.65      1.65      1.67      1.15         0.06
  C11                         1.67      1.67      1.67      1.00         0.06
  C12                         1.67      1.67      1.67      0.53         0.17
  C13                         1.66      1.66      1.67      0.33         0.08
  C14                         1.67      1.67      1.67      1.11         0.14
  C15                         1.67      1.67      1.67      1.14         0.07
  C16                         1.67      1.67      1.67      0.83         0.01
  C17                         1.58      1.67      1.58      1.28         0.08
  C18                         1.67      1.67      1.67      1.21         0.13
  C19                         1.67      1.67      1.67      0.99         0.18
  C20                         1.67      1.67      1.67      1.26         0.09
  C21                         1.67      1.67      1.67      1.28         0.17
  C22                         1.58      1.58      1.67      1.18         0.09
  C47                         1.66      1.67      1.66      1.34         0.01
  Cout                        0.01      1.64      0.01      1.67         0.01
  
  
  ***************
  Pumping Summary
  ***************
  
  ---------------------------------------------------------------------------------------------------------
                                                  Min       Avg       Max     Total     Power    % Time Off
                        Percent   Number of      Flow      Flow      Flow    Volume     Usage    Pump Curve
  Pump                 Utilized   Start-Ups       CMS       CMS       CMS  10^6 ltr     Kw-hr    Low   High
  ---------------------------------------------------------------------------------------------------------
  P1                       0.00           0      0.00      0.00      0.00     0.000      0.00    0.0    0.0
  

  Analysis begun on:  Mon Nov 18 16:46:32 2024
  Analysis ended on:  Mon Nov 18 16:46:32 2024
  Total elapsed time: < 1 sec