
  EPA STORM WATER MANAGEMENT MODEL - VERSION 5.2 (Build 5.2.4)
  PYSWMM TOOLKIT API - VERSION v1.0 (2023-11-27)
  ------------------------------------------------------------

  WARNING 04: minimum elevation drop used for Conduit C23
  WARNING 04: minimum elevation drop used for Conduit C24
  WARNING 04: minimum elevation drop used for Conduit C25
  WARNING 04: minimum elevation drop used for Conduit C26
  WARNING 04: minimum elevation drop used for Conduit C27
  WARNING 04: minimum elevation drop used for Conduit C28
  WARNING 04: minimum elevation drop used for Conduit C29
  WARNING 04: minimum elevation drop used for Conduit C30
  WARNING 04: minimum elevation drop used for Conduit C31
  WARNING 04: minimum elevation drop used for Conduit C32
  WARNING 04: minimum elevation drop used for Conduit C33
  WARNING 04: minimum elevation drop used for Conduit C34
  WARNING 04: minimum elevation drop used for Conduit C35
  WARNING 04: minimum elevation drop used for Conduit C36
  WARNING 04: minimum elevation drop used for Conduit C37
  WARNING 04: minimum elevation drop used for Conduit C38
  WARNING 04: minimum elevation drop used for Conduit C39
  WARNING 04: minimum elevation drop used for Conduit C40
  WARNING 04: minimum elevation drop used for Conduit C41
  WARNING 04: minimum elevation drop used for Conduit C43
  WARNING 04: minimum elevation drop used for Conduit C44
  WARNING 04: minimum elevation drop used for Conduit C45
  WARNING 04: minimum elevation drop used for Conduit C46
  WARNING 04: minimum elevation drop used for Conduit C48
  WARNING 04: minimum elevation drop used for Conduit C42
  WARNING 04: minimum elevation drop used for Conduit C50
  WARNING 04: minimum elevation drop used for Conduit C49
  WARNING 04: minimum elevation drop used for Conduit C01
  WARNING 04: minimum elevation drop used for Conduit C02
  WARNING 04: minimum elevation drop used for Conduit C03
  WARNING 04: minimum elevation drop used for Conduit C04
  WARNING 04: minimum elevation drop used for Conduit C05
  WARNING 04: minimum elevation drop used for Conduit C06
  WARNING 04: minimum elevation drop used for Conduit C07
  WARNING 04: minimum elevation drop used for Conduit C08
  WARNING 04: minimum elevation drop used for Conduit C09
  WARNING 04: minimum elevation drop used for Conduit C10
  WARNING 04: minimum elevation drop used for Conduit C11
  WARNING 04: minimum elevation drop used for Conduit C12
  WARNING 04: minimum elevation drop used for Conduit C13
  WARNING 04: minimum elevation drop used for Conduit C14
  WARNING 04: minimum elevation drop used for Conduit C15
  WARNING 04: minimum elevation drop used for Conduit C16
  WARNING 04: minimum elevation drop used for Conduit C17
  WARNING 04: minimum elevation drop used for Conduit C18
  WARNING 04: minimum elevation drop used for Conduit C19
  WARNING 04: minimum elevation drop used for Conduit C20
  WARNING 04: minimum elevation drop used for Conduit C21
  WARNING 04: minimum elevation drop used for Conduit C22
  WARNING 04: minimum elevation drop used for Conduit C47
  WARNING 04: minimum elevation drop used for Conduit Cout
  
  ****************
  Analysis Options
  ****************
  Flow Units ............... CMS
  Process Models:
    Rainfall/Runoff ........ YES
    RDII ................... NO
    Snowmelt ............... NO
    Groundwater ............ NO
    Flow Routing ........... YES
    Ponding Allowed ........ NO
    Water Quality .......... NO
  Infiltration Method ...... HORTON
  Flow Routing Method ...... DYNWAVE
  Surcharge Method ......... EXTRAN
  Starting Date ............ 09/25/2022 13:00:00
  Ending Date .............. 09/25/2022 13:50:00
  Antecedent Dry Days ...... 0.0
  Report Time Step ......... 00:10:00
  Wet Time Step ............ 00:05:00
  Dry Time Step ............ 01:00:00
  Routing Time Step ........ 300.00 sec
  Variable Time Step ....... YES
  Maximum Trials ........... 8
  Number of Threads ........ 1
  Head Tolerance ........... 0.001524 m
  
  
  *********************
  Rainfall File Summary
  *********************
  Station    First        Last         Recording   Periods    Periods    Periods
  ID         Date         Date         Frequency  w/Precip    Missing    Malfunc.
  -------------------------------------------------------------------------------
  498        09/25/2022   09/25/2022      10 min         6          0          0

  
  
  **************************        Volume         Depth
  Runoff Quantity Continuity     hectare-m            mm
  **************************     ---------       -------
  Total Precipitation ......        81.245       812.483
  Evaporation Loss .........         0.000         0.000
  Infiltration Loss ........         0.000         0.000
  Surface Runoff ...........        76.199       762.023
  Final Storage ............         6.395        63.956
  Continuity Error (%) .....        -1.661
  
  
  **************************        Volume        Volume
  Flow Routing Continuity        hectare-m      10^6 ltr
  **************************     ---------     ---------
  Dry Weather Inflow .......         0.000         0.000
  Wet Weather Inflow .......        71.769       717.701
  Groundwater Inflow .......         0.000         0.000
  RDII Inflow ..............         0.000         0.000
  External Inflow ..........         0.000         0.000
  External Outflow .........         2.104        21.044
  Flooding Loss ............        66.837       668.379
  Evaporation Loss .........         0.000         0.000
  Exfiltration Loss ........         0.000         0.000
  Initial Stored Volume ....         0.046         0.463
  Final Stored Volume ......         1.883        18.831
  Continuity Error (%) .....         1.380
  
  
  *************************
  Highest Continuity Errors
  *************************
  Node J3 (12.84%)
  Node J30 (11.10%)
  Node J17 (10.55%)
  Node J24 (8.88%)
  Node J18 (6.42%)
  
  
  ***************************
  Time-Step Critical Elements
  ***************************
  Link Cout (98.98%)
  
  
  ********************************
  Highest Flow Instability Indexes
  ********************************
  Link C24 (2)
  Link C25 (2)
  Link C31 (2)
  Link C33 (2)
  Link C34 (2)
  
  
  *********************************
  Most Frequent Nonconverging Nodes
  *********************************
  Convergence obtained at all time steps.
  
  
  *************************
  Routing Time Step Summary
  *************************
  Minimum Time Step           :     4.92 sec
  Average Time Step           :    15.30 sec
  Maximum Time Step           :   300.00 sec
  % of Time in Steady State   :     0.00
  Average Iterations per Step :     2.03
  % of Steps Not Converging   :     0.00
  Time Step Frequencies       :
     300.000 - 83.462 sec      :     0.51 %
     83.462 - 23.220 sec      :     0.00 %
     23.220 -  6.460 sec      :    98.46 %
      6.460 -  1.797 sec      :     1.03 %
      1.797 -  0.500 sec      :     0.00 %
  
  
  ***************************
  Subcatchment Runoff Summary
  ***************************
  
  ------------------------------------------------------------------------------------------------------------------------------
                            Total      Total      Total      Total     Imperv       Perv      Total       Total     Peak  Runoff
                           Precip      Runon       Evap      Infil     Runoff     Runoff     Runoff      Runoff   Runoff   Coeff
  Subcatchment                 mm         mm         mm         mm         mm         mm         mm    10^6 ltr      CMS
  ------------------------------------------------------------------------------------------------------------------------------
  S1                       812.48       0.00       0.00       0.00       8.04     804.44     812.48      204.96   112.14   1.000
  S2                       812.48       0.00       0.00       0.00       7.39     805.73     813.12        6.32     3.45   1.001
  S3                       812.48       0.00       0.00       0.00       7.39     805.09     812.48        1.68     0.92   1.000
  S4                       812.48       0.00       0.00       0.00       7.39     805.09     812.48        1.67     0.91   1.000
  S5                       812.48       0.00       0.00       0.00       7.39     805.09     812.48        2.43     1.33   1.000
  S6                       812.48       0.00       0.00       0.00       7.39     805.09     812.48        6.69     3.66   1.000
  S7                       812.48       0.00       0.00       0.00       7.39     805.09     812.48        1.26     0.69   1.000
  S8                       812.48       0.00       0.00       0.00       7.39     805.09     812.48        3.96     2.16   1.000
  S9                       812.48       0.00       0.00       0.00       7.39     805.09     812.48        4.89     2.68   1.000
  S10                      812.48       0.00       0.00       0.00       0.00     805.09     805.09        1.14     0.62   0.991
  S11                      812.48       0.00       0.00       0.00       7.39     766.83     774.22       11.33     6.20   0.953
  S12                      812.48       0.00       0.00       0.00       7.39     805.09     812.48        7.05     3.86   1.000
  S13                      812.48       0.00       0.00       0.00       0.00     805.09     805.09        6.79     3.72   0.991
  S14                      812.48       0.00       0.00       0.00       6.82     805.66     812.48        6.52     3.57   1.000
  S15                      812.48       0.00       0.00       0.00       6.82     805.66     812.48        6.09     3.33   1.000
  S16                      812.48       0.00       0.00       0.00       6.26     800.52     806.78       14.25     7.83   0.993
  S17                      812.48       0.00       0.00       0.00       6.26     710.85     717.11       24.42    11.90   0.883
  S18                      812.48       0.00       0.00       0.00       6.26     806.28     812.53        1.05     0.57   1.000
  S19                      812.48       0.00       0.00       0.00       6.26       0.00       6.26        0.02     0.01   0.008
  S20                      812.48       0.00       0.00       0.00       6.26     806.24     812.49        0.83     0.45   1.000
  S21                      812.48       0.00       0.00       0.00       6.26     786.35     792.60       13.14     7.26   0.976
  S22                      812.48       0.00       0.00       0.00       6.26     806.20     812.45        0.27     0.15   1.000
  S23                      812.48       0.00       0.00       0.00       6.26     806.23     812.48        0.32     0.17   1.000
  S24                      812.48       0.00       0.00       0.00       6.26     806.23     812.48        0.40     0.22   1.000
  S25                      812.48       0.00       0.00       0.00       6.26     806.23     812.48        0.48     0.26   1.000
  S26                      812.48       0.00       0.00       0.00       6.26     806.23     812.48        0.56     0.31   1.000
  S27                      812.48       0.00       0.00       0.00       6.26     806.84     813.10        6.76     3.69   1.001
  S28                      812.48       0.00       0.00       0.00       6.26     788.93     795.19        7.06     3.90   0.979
  S29                      812.48       0.00       0.00       0.00       6.26     806.24     812.49        0.75     0.41   1.000
  S30                      812.48       0.00       0.00       0.00       6.26     685.73     691.98       44.08    21.29   0.852
  S31                      812.48       0.00       0.00       0.00       6.50     805.98     812.48       11.01     6.02   1.000
  S32                      812.48       0.00       0.00       0.00       6.50     805.98     812.48        3.39     1.85   1.000
  S33                      812.48       0.00       0.00       0.00       7.64     804.85     812.48        2.53     1.38   1.000
  S34                      812.48       0.00       0.00       0.00       7.64     804.85     812.48        2.67     1.46   1.000
  S35                      812.48       0.00       0.00       0.00       7.39     805.09     812.48        3.27     1.79   1.000
  S36                      812.48       0.00       0.00       0.00       7.39     805.09     812.48        1.34     0.73   1.000
  S37                      812.48       0.00       0.00       0.00       7.39     805.09     812.48        2.92     1.60   1.000
  S38                      812.48       0.00       0.00       0.00       7.39     805.09     812.48        0.13     0.07   1.000
  S39                      812.48       0.00       0.00       0.00       7.39     805.09     812.48        3.33     1.82   1.000
  S40                      812.48       0.00       0.00       0.00       7.39     805.09     812.48        1.15     0.63   1.000
  S41                      812.48       0.00       0.00       0.00       7.39     805.09     812.48        1.84     1.01   1.000
  S42                      812.48       0.00       0.00       0.00       7.39     805.09     812.48        2.57     1.40   1.000
  S43                      812.48       0.00       0.00       0.00       7.39     805.09     812.48        5.85     3.20   1.000
  S44                      812.48       0.00       0.00       0.00       7.39     805.09     812.48        4.24     2.32   1.000
  S45                      812.48       0.00       0.00       0.00       7.39     805.09     812.48        0.43     0.24   1.000
  S46                      812.48       0.00       0.00       0.00       7.39     805.09     812.48        3.93     2.15   1.000
  S47                      812.48       0.00       0.00       0.00       7.39     805.09     812.48        7.95     4.35   1.000
  S48                      812.48       0.00       0.00       0.00       7.39     805.09     812.48        9.18     5.02   1.000
  S49                      812.48       0.00       0.00       0.00       7.39     805.09     812.48        5.58     3.05   1.000
  S50                      812.48       0.00       0.00       0.00       7.39     805.09     812.48        4.60     2.52   1.000
  S51                      812.48       0.00       0.00       0.00       7.39     805.09     812.48        2.71     1.48   1.000
  S52                      812.48       0.00       0.00       0.00       7.39     805.09     812.48        7.19     3.93   1.000
  S53                      812.48       0.00       0.00       0.00       7.39     788.86     796.25        9.70     5.36   0.980
  S54                      812.48       0.00       0.00       0.00       7.39     805.05     812.45        3.71     2.03   1.000
  S55                      812.48       0.00       0.00       0.00       7.39     805.09     812.48        0.31     0.17   1.000
  S56                      812.48       0.00       0.00       0.00       7.39     805.08     812.48        0.31     0.17   1.000
  S57                      812.48       0.00       0.00       0.00       7.39     805.09     812.48        4.20     2.30   1.000
  S58                      812.48       0.00       0.00       0.00       7.39     805.09     812.48        5.39     2.95   1.000
  S59                      812.48       0.00       0.00       0.00       7.39     805.09     812.48        5.24     2.87   1.000
  S60                      812.48       0.00       0.00       0.00       6.26     807.01     813.27        3.20     1.75   1.001
  S61                      812.48       0.00       0.00       0.00       6.26       0.00       6.26        0.02     0.01   0.008
  S62                      812.48       0.00       0.00       0.00       6.26     668.34     674.60       36.15    17.58   0.830
  S63                      812.48       0.00       0.00       0.00       6.26     806.23     812.48        7.64     4.18   1.000
  S64                      812.48       0.00       0.00       0.00       6.26     806.23     812.48       20.68    11.31   1.000
  S65                      812.48       0.00       0.00       0.00       6.26     806.23     812.48        3.30     1.80   1.000
  S66                      812.48       0.00       0.00       0.00       6.26     806.23     812.48        5.32     2.91   1.000
  S67                      812.48       0.00       0.00       0.00       6.26     806.23     812.48        9.94     5.44   1.000
  S68                      812.48       0.00       0.00       0.00       6.26     806.23     812.48       11.66     6.38   1.000
  S69                      812.48       0.00       0.00       0.00       6.26       0.00       6.26        0.16     0.09   0.008
  S70                      812.48       0.00       0.00       0.00       6.26     785.15     791.41       20.71    11.44   0.974
  S71                      812.48       0.00       0.00       0.00       7.39     805.09     812.48       11.95     6.54   1.000
  S72                      812.48       0.00       0.00       0.00       6.26     802.38     808.64        4.01     2.20   0.995
  S73                      812.48       0.00       0.00       0.00       6.26     806.23     812.48       17.03     9.32   1.000
  S74                      812.48       0.00       0.00       0.00       6.26       0.00       6.26        0.04     0.02   0.008
  S75                      812.48       0.00       0.00       0.00       6.26     806.23     812.48        0.54     0.30   1.000
  S76                      812.48       0.00       0.00       0.00       6.26     806.23     812.48       10.73     5.87   1.000
  S77                      812.48       0.00       0.00       0.00       6.26     806.23     812.48        8.69     4.75   1.000
  S78                      812.48       0.00       0.00       0.00       6.26     806.23     812.48        6.30     3.45   1.000
  S79                      812.48       0.00       0.00       0.00       7.39     805.09     812.48        5.52     3.02   1.000
  S80                      812.48       0.00       0.00       0.00       6.26     806.80     813.06        2.24     1.23   1.001
  S81                      812.48       0.00       0.00       0.00       6.26     806.23     812.48        9.19     5.03   1.000
  S82                      812.48       0.00       0.00       0.00       6.26     806.23     812.48        8.97     4.91   1.000
  S83                      812.48       0.00       0.00       0.00       6.26     806.23     812.48        5.77     3.16   1.000
  S84                      812.48       0.00       0.00       0.00       7.39     805.09     812.48        3.77     2.06   1.000
  S85                      812.48       0.00       0.00       0.00       7.39     794.22     801.61        9.91     5.46   0.987
  S86                      812.48       0.00       0.00       0.00       0.00     805.09     805.09        9.31     5.10   0.991
  S87                      812.48       0.00       0.00       0.00       7.39     805.09     812.48       10.09     5.52   1.000
  S88                      812.48       0.00       0.00       0.00       7.39     805.09     812.48        1.82     1.00   1.000
  S89                      812.48       0.00       0.00       0.00       7.39     805.09     812.48        8.21     4.49   1.000
  S90                      812.48       0.00       0.00       0.00       0.00     805.09     805.09        3.95     2.16   0.991
  S91                      812.48       0.00       0.00       0.00       7.39     805.09     812.48        1.34     0.73   1.000
  
  
  ******************
  Node Depth Summary
  ******************
  
  ---------------------------------------------------------------------------------
                                 Average  Maximum  Maximum  Time of Max    Reported
                                   Depth    Depth      HGL   Occurrence   Max Depth
  Node                 Type       Meters   Meters   Meters  days hr:min      Meters
  ---------------------------------------------------------------------------------
  J7                   JUNCTION     2.49     2.50     2.50     0  00:05        2.50
  J13                  JUNCTION     2.49     2.50     2.50     0  00:05        2.50
  J19                  JUNCTION     2.49     2.50     2.50     0  00:05        2.50
  J25                  JUNCTION     2.49     2.50     2.50     0  00:05        2.50
  J1                   JUNCTION     2.49     2.50     2.50     0  00:05        2.50
  J2                   JUNCTION     2.49     2.50     2.50     0  00:05        2.50
  J3                   JUNCTION     2.49     2.50     2.50     0  00:05        2.50
  J4                   JUNCTION     2.49     2.50     2.50     0  00:05        2.50
  J5                   JUNCTION     2.49     2.50     2.50     0  00:05        2.50
  J6                   JUNCTION     2.49     2.50     2.50     0  00:05        2.50
  J8                   JUNCTION     2.49     2.50     2.50     0  00:05        2.50
  J9                   JUNCTION     2.49     2.50     2.50     0  00:05        2.50
  J10                  JUNCTION     2.49     2.50     2.50     0  00:05        2.50
  J11                  JUNCTION     2.49     2.50     2.50     0  00:05        2.50
  J12                  JUNCTION     2.49     2.50     2.50     0  00:05        2.50
  J14                  JUNCTION     2.49     2.50     2.50     0  00:05        2.50
  J15                  JUNCTION     2.49     2.50     2.50     0  00:05        2.50
  J16                  JUNCTION     2.49     2.50     2.50     0  00:05        2.50
  J17                  JUNCTION     2.49     2.50     2.50     0  00:05        2.50
  J18                  JUNCTION     2.49     2.50     2.50     0  00:05        2.50
  J20                  JUNCTION     2.49     2.50     2.50     0  00:05        2.50
  J21                  JUNCTION     2.49     2.50     2.50     0  00:05        2.50
  J22                  JUNCTION     2.49     2.50     2.50     0  00:05        2.50
  J23                  JUNCTION     2.49     2.50     2.50     0  00:05        2.50
  J24                  JUNCTION     2.49     2.50     2.50     0  00:05        2.50
  J26                  JUNCTION     2.49     2.50     2.50     0  00:05        2.50
  J27                  JUNCTION     2.49     2.50     2.50     0  00:05        2.50
  J29                  JUNCTION     2.49     2.50     2.50     0  00:05        2.50
  J30                  JUNCTION     2.49     2.50     2.50     0  00:05        2.50
  J31                  JUNCTION     2.49     2.50     2.50     0  00:05        2.50
  J33                  JUNCTION     2.49     2.50     2.50     0  00:05        2.50
  J32                  JUNCTION     2.49     2.50     2.50     0  00:05        2.50
  J28                  JUNCTION     2.49     2.50     2.50     0  00:05        2.50
  OF                   OUTFALL      1.36     1.41     1.41     0  00:05        1.37
  
  
  *******************
  Node Inflow Summary
  *******************
  
  -------------------------------------------------------------------------------------------------
                                  Maximum  Maximum                  Lateral       Total        Flow
                                  Lateral    Total  Time of Max      Inflow      Inflow     Balance
                                   Inflow   Inflow   Occurrence      Volume      Volume       Error
  Node                 Type           CMS      CMS  days hr:min    10^6 ltr    10^6 ltr     Percent
  -------------------------------------------------------------------------------------------------
  J7                   JUNCTION    23.215   23.215     0  00:20        46.1        46.1       1.641
  J13                  JUNCTION     2.534    2.534     0  00:10        4.35        4.35       4.434
  J19                  JUNCTION   120.146  120.146     0  00:10         207         207       4.284
  J25                  JUNCTION    11.903   13.040     0  00:10        22.9        24.8       2.794
  J1                   JUNCTION    10.089   10.089     0  00:10        17.4        17.4       4.369
  J2                   JUNCTION     7.580    8.154     0  00:05        13.1        13.8       3.682
  J3                   JUNCTION     0.338    9.791     0  00:05       0.582        5.48      14.734
  J4                   JUNCTION    21.947   24.141     0  00:05        37.8        39.9       3.427
  J5                   JUNCTION    18.147   18.305     0  00:05        31.3        31.6       3.261
  J6                   JUNCTION     7.940    7.940     0  00:10        13.7        13.7       4.231
  J8                   JUNCTION    12.216   12.216     0  00:05        21.1        21.1       4.603
  J9                   JUNCTION     5.464    5.666     0  00:10        9.33        9.83       3.280
  J10                  JUNCTION     8.197    8.197     0  00:05        14.1        14.1       2.961
  J11                  JUNCTION     8.807   10.187     0  00:05        15.2        16.8       3.518
  J12                  JUNCTION     9.318   10.141     0  00:05        16.1        17.2       4.121
  J14                  JUNCTION     7.895    7.895     0  00:05        13.6        13.6       4.632
  J15                  JUNCTION    11.243   11.243     0  00:10        19.3        19.3       3.846
  J16                  JUNCTION     6.539    9.706     0  00:05        11.3        14.3       3.696
  J17                  JUNCTION     0.085    6.132     0  00:05       0.147        4.18      11.788
  J18                  JUNCTION     0.298    1.535     0  00:05       0.513        1.59       6.856
  J20                  JUNCTION    21.784   21.784     0  00:10        37.5        37.5       4.290
  J21                  JUNCTION     7.288    7.288     0  00:10        12.6        12.6       4.632
  J22                  JUNCTION    14.775   14.775     0  00:10        25.2        25.2       3.510
  J23                  JUNCTION     7.834    8.307     0  00:10        13.4        14.3       3.715
  J24                  JUNCTION     1.035    5.783     0  00:05        1.78        3.91       9.751
  J26                  JUNCTION     6.437    6.437     0  00:05        11.1        11.1       4.632
  J27                  JUNCTION     5.645    6.973     0  00:05        9.73        11.3       4.211
  J29                  JUNCTION     9.260   11.172     0  00:05          16        17.9       4.202
  J30                  JUNCTION     0.000    6.578     0  00:05           0        4.25      12.490
  J31                  JUNCTION    21.289   21.610     0  00:20        41.2        42.3       1.742
  J33                  JUNCTION     9.111    9.111     0  00:10        15.7        15.7       4.615
  J32                  JUNCTION     4.157    4.157     0  00:10        7.17        7.17       3.718
  J28                  JUNCTION     6.646    8.636     0  00:05        11.5        13.4       3.710
  OF                   OUTFALL      0.000    7.967     0  00:05           0          21       0.000
  
  
  **********************
  Node Surcharge Summary
  **********************
  
  Surcharging occurs when water rises above the top of the highest conduit.
  ---------------------------------------------------------------------
                                               Max. Height   Min. Depth
                                   Hours       Above Crown    Below Rim
  Node                 Type      Surcharged         Meters       Meters
  ---------------------------------------------------------------------
  J7                   JUNCTION        0.83          0.850        0.000
  J13                  JUNCTION        0.83          0.850        0.000
  J19                  JUNCTION        0.83          0.850        0.000
  J25                  JUNCTION        0.83          0.850        0.000
  J1                   JUNCTION        0.83          0.850        0.000
  J2                   JUNCTION        0.83          0.850        0.000
  J3                   JUNCTION        0.83          0.850        0.000
  J4                   JUNCTION        0.83          0.850        0.000
  J5                   JUNCTION        0.83          0.850        0.000
  J6                   JUNCTION        0.83          0.850        0.000
  J8                   JUNCTION        0.83          0.850        0.000
  J9                   JUNCTION        0.83          0.850        0.000
  J10                  JUNCTION        0.83          0.850        0.000
  J11                  JUNCTION        0.83          0.850        0.000
  J12                  JUNCTION        0.83          0.850        0.000
  J14                  JUNCTION        0.83          0.850        0.000
  J15                  JUNCTION        0.83          0.850        0.000
  J16                  JUNCTION        0.83          0.850        0.000
  J17                  JUNCTION        0.83          0.850        0.000
  J18                  JUNCTION        0.83          0.850        0.000
  J20                  JUNCTION        0.83          0.850        0.000
  J21                  JUNCTION        0.83          0.850        0.000
  J22                  JUNCTION        0.83          0.850        0.000
  J23                  JUNCTION        0.83          0.850        0.000
  J24                  JUNCTION        0.83          0.850        0.000
  J26                  JUNCTION        0.83          0.850        0.000
  J27                  JUNCTION        0.83          0.850        0.000
  J29                  JUNCTION        0.83          0.850        0.000
  J30                  JUNCTION        0.83          0.850        0.000
  J31                  JUNCTION        0.83          0.850        0.000
  J33                  JUNCTION        0.83          0.850        0.000
  J32                  JUNCTION        0.83          0.850        0.000
  J28                  JUNCTION        0.83          0.850        0.000
  
  
  *********************
  Node Flooding Summary
  *********************
  
  Flooding refers to all water that overflows a node, whether it ponds or not.
  --------------------------------------------------------------------------
                                                             Total   Maximum
                                 Maximum   Time of Max       Flood    Ponded
                        Hours       Rate    Occurrence      Volume     Depth
  Node                 Flooded       CMS   days hr:min    10^6 ltr    Meters
  --------------------------------------------------------------------------
  J7                      0.83    22.801      0  00:20      43.999     0.000
  J13                     0.83     2.533      0  00:10       4.352     0.000
  J19                     0.83   112.790      0  00:10     186.017     0.000
  J25                     0.83    13.023      0  00:10      24.812     0.000
  J1                      0.83     9.690      0  00:10      16.675     0.000
  J2                      0.83     6.910      0  00:10      11.949     0.000
  J3                      0.83     9.210      0  00:05       5.478     0.000
  J4                      0.83    21.449      0  00:10      36.430     0.000
  J5                      0.83    15.793      0  00:10      27.232     0.000
  J6                      0.83     7.430      0  00:10      12.704     0.000
  J8                      0.83    12.148      0  00:10      20.892     0.000
  J9                      0.83     5.069      0  00:10       8.824     0.000
  J10                     0.83     6.445      0  00:10      11.079     0.000
  J11                     0.83     8.583      0  00:10      14.728     0.000
  J12                     0.83     9.299      0  00:10      16.155     0.000
  J14                     0.83     7.895      0  00:05      13.612     0.000
  J15                     0.83    10.562      0  00:10      18.081     0.000
  J16                     0.83     7.388      0  00:08      12.561     0.000
  J17                     0.83     5.898      0  00:05       4.184     0.000
  J18                     0.83     1.381      0  00:05       1.323     0.000
  J20                     0.83    21.770      0  00:10      37.507     0.000
  J21                     0.83     7.288      0  00:10      12.564     0.000
  J22                     0.83    13.715      0  00:10      23.431     0.000
  J23                     0.83     7.445      0  00:10      12.727     0.000
  J24                     0.83     4.506      0  00:05       2.954     0.000
  J26                     0.83     6.437      0  00:05      11.098     0.000
  J27                     0.83     5.986      0  00:05      10.324     0.000
  J29                     0.83     9.442      0  00:05      16.124     0.000
  J30                     0.83     6.342      0  00:05       4.254     0.000
  J31                     0.83    21.228      0  00:20      40.699     0.000
  J33                     0.83     9.111      0  00:10      15.713     0.000
  J32                     0.83     3.648      0  00:10       6.286     0.000
  J28                     0.83     6.922      0  00:10      11.885     0.000
  
  
  ***********************
  Outfall Loading Summary
  ***********************
  
  -----------------------------------------------------------
                         Flow       Avg       Max       Total
                         Freq      Flow      Flow      Volume
  Outfall Node           Pcnt       CMS       CMS    10^6 ltr
  -----------------------------------------------------------
  OF                   100.00     7.321     7.967      21.044
  -----------------------------------------------------------
  System               100.00     7.321     7.967      21.044
  
  
  ********************
  Link Flow Summary
  ********************
  
  -----------------------------------------------------------------------------
                                 Maximum  Time of Max   Maximum    Max/    Max/
                                  |Flow|   Occurrence   |Veloc|    Full    Full
  Link                 Type          CMS  days hr:min     m/sec    Flow   Depth
  -----------------------------------------------------------------------------
  P1                   PUMP        0.000     0  00:00                          
  C23                  CONDUIT     0.065     0  00:05      0.03    0.56    1.00
  C24                  CONDUIT     1.016     0  00:05      0.48    8.80    1.00
  C25                  CONDUIT     0.077     0  00:05      0.04    0.61    1.00
  C26                  CONDUIT     0.844     0  00:05      0.39    6.60    1.00
  C27                  CONDUIT     0.072     0  00:05      0.03    0.59    1.00
  C28                  CONDUIT     1.084     0  00:05      0.51    7.47    1.00
  C29                  CONDUIT     0.575     0  00:05      0.27    4.05    1.00
  C30                  CONDUIT     1.092     0  00:05      0.51    9.60    1.00
  C31                  CONDUIT     0.537     0  00:05      0.25    4.70    1.00
  C32                  CONDUIT     2.398     0  00:05      1.12   15.50    1.00
  C33                  CONDUIT     6.069     0  00:05      2.84   35.51    1.00
  C34                  CONDUIT     1.101     0  00:05      0.51    8.76    1.00
  C35                  CONDUIT     0.158     0  00:05      0.07    1.68    1.00
  C36                  CONDUIT     0.514     0  00:05      0.24    4.85    1.00
  C37                  CONDUIT     0.907     0  00:05      0.42    6.22    1.00
  C38                  CONDUIT     0.900     0  00:05      0.42    6.27    1.00
  C39                  CONDUIT     0.986     0  00:05      0.46    6.25    1.00
  C40                  CONDUIT     0.000     0  00:00      0.00    0.00    1.00
  C41                  CONDUIT     0.000     0  00:00      0.00    0.00    1.00
  C43                  CONDUIT     0.000     0  00:00      0.00    0.00    1.00
  C44                  CONDUIT     1.079     0  00:05      0.50    9.21    1.00
  C45                  CONDUIT     2.695     0  00:05      1.26   23.13    1.00
  C46                  CONDUIT     2.618     0  00:05      1.22   21.69    1.00
  C48                  CONDUIT     0.000     0  00:05      0.00    0.00    1.00
  C42                  CONDUIT     1.265     0  00:05      0.59   10.03    1.00
  C50                  CONDUIT     0.833     0  00:05      0.39    8.05    1.00
  C49                  CONDUIT     0.464     0  00:05      0.22    4.05    1.00
  C01                  CONDUIT     0.000     0  00:00      0.00    0.00    1.00
  C02                  CONDUIT     0.000     0  00:00      0.00    0.00    1.00
  C03                  CONDUIT     0.752     0  00:05      0.35    6.01    1.00
  C04                  CONDUIT     1.066     0  00:05      0.50    8.39    1.00
  C05                  CONDUIT     0.984     0  00:05      0.46    7.85    1.00
  C06                  CONDUIT     0.000     0  00:00      0.00    0.00    1.00
  C07                  CONDUIT     0.000     0  00:00      0.00    0.00    1.00
  C08                  CONDUIT     0.000     0  00:00      0.00    0.00    1.00
  C09                  CONDUIT     1.000     0  00:05      0.47    8.75    1.00
  C10                  CONDUIT     1.151     0  00:05      0.54    9.18    1.00
  C11                  CONDUIT     0.000     0  00:00      0.00    0.00    1.00
  C12                  CONDUIT     0.347     0  00:05      0.16    2.99    1.00
  C13                  CONDUIT     0.000     0  00:05      0.00    0.00    1.00
  C14                  CONDUIT     3.062     0  00:05      1.43   24.32    1.00
  C15                  CONDUIT     0.129     0  00:05      0.06    1.03    1.00
  C16                  CONDUIT     4.748     0  00:05      2.22   41.68    1.00
  C17                  CONDUIT     2.509     0  00:05      1.17   22.14    1.00
  C18                  CONDUIT     0.000     0  00:00      0.00    0.00    1.00
  C19                  CONDUIT     0.000     0  00:05      0.00    0.00    1.00
  C20                  CONDUIT     1.237     0  00:05      0.58   11.01    1.00
  C21                  CONDUIT     0.000     0  00:05      0.00    0.00    1.00
  C22                  CONDUIT     0.309     0  00:05      0.14    2.44    1.00
  C47                  CONDUIT     1.206     0  00:05      0.56   12.40    1.00
  Cout                 CONDUIT     7.967     0  00:05      3.85   62.91    0.93
  
  
  ***************************
  Flow Classification Summary
  ***************************
  
  -------------------------------------------------------------------------------------
                      Adjusted    ---------- Fraction of Time in Flow Class ---------- 
                       /Actual         Up    Down  Sub   Sup   Up    Down  Norm  Inlet 
  Conduit               Length    Dry  Dry   Dry   Crit  Crit  Crit  Crit  Ltd   Ctrl  
  -------------------------------------------------------------------------------------
  C23                     1.00   0.00  0.00  0.00  1.00  0.00  0.00  0.00  0.00  0.00
  C24                     1.00   0.00  0.00  0.00  1.00  0.00  0.00  0.00  0.00  0.00
  C25                     1.00   0.00  0.00  0.00  1.00  0.00  0.00  0.00  0.00  0.00
  C26                     1.00   0.00  0.00  0.00  1.00  0.00  0.00  0.00  0.00  0.00
  C27                     1.00   0.00  0.00  0.00  1.00  0.00  0.00  0.00  0.00  0.00
  C28                     1.00   0.00  0.00  0.00  1.00  0.00  0.00  0.00  0.00  0.00
  C29                     1.00   0.00  0.00  0.00  1.00  0.00  0.00  0.00  0.00  0.00
  C30                     1.00   0.00  0.00  0.00  1.00  0.00  0.00  0.00  0.00  0.00
  C31                     1.00   0.00  0.00  0.00  1.00  0.00  0.00  0.00  0.00  0.00
  C32                     1.00   0.00  0.00  0.00  1.00  0.00  0.00  0.00  0.00  0.00
  C33                     1.00   0.00  0.00  0.00  1.00  0.00  0.00  0.00  0.00  0.00
  C34                     1.00   0.00  0.00  0.00  1.00  0.00  0.00  0.00  0.00  0.00
  C35                     1.00   0.00  0.00  0.00  1.00  0.00  0.00  0.00  0.00  0.00
  C36                     1.00   0.00  0.00  0.00  1.00  0.00  0.00  0.00  0.00  0.00
  C37                     1.00   0.00  0.00  0.00  1.00  0.00  0.00  0.00  0.00  0.00
  C38                     1.00   0.00  0.00  0.00  1.00  0.00  0.00  0.00  0.00  0.00
  C39                     1.00   0.00  0.00  0.00  1.00  0.00  0.00  0.00  0.00  0.00
  C40                     1.00   0.00  0.00  0.00  1.00  0.00  0.00  0.00  0.00  0.00
  C41                     1.00   0.00  0.00  0.00  1.00  0.00  0.00  0.00  0.00  0.00
  C43                     1.00   0.00  0.00  0.00  1.00  0.00  0.00  0.00  0.00  0.00
  C44                     1.00   0.00  0.00  0.00  1.00  0.00  0.00  0.00  0.00  0.00
  C45                     1.00   0.00  0.00  0.00  1.00  0.00  0.00  0.00  0.00  0.00
  C46                     1.00   0.00  0.00  0.00  1.00  0.00  0.00  0.00  0.00  0.00
  C48                     1.00   0.00  0.00  0.00  1.00  0.00  0.00  0.00  0.00  0.00
  C42                     1.00   0.00  0.00  0.00  1.00  0.00  0.00  0.00  0.00  0.00
  C50                     1.00   0.00  0.00  0.00  1.00  0.00  0.00  0.00  0.00  0.00
  C49                     1.00   0.00  0.00  0.00  1.00  0.00  0.00  0.00  0.00  0.00
  C01                     1.00   0.00  0.00  0.00  1.00  0.00  0.00  0.00  0.00  0.00
  C02                     1.00   0.00  0.00  0.00  1.00  0.00  0.00  0.00  0.00  0.00
  C03                     1.00   0.00  0.00  0.00  1.00  0.00  0.00  0.00  0.00  0.00
  C04                     1.00   0.00  0.00  0.00  1.00  0.00  0.00  0.00  0.00  0.00
  C05                     1.00   0.00  0.00  0.00  1.00  0.00  0.00  0.00  0.00  0.00
  C06                     1.00   0.00  0.00  0.00  1.00  0.00  0.00  0.00  0.00  0.00
  C07                     1.00   0.00  0.00  0.00  1.00  0.00  0.00  0.00  0.00  0.00
  C08                     1.00   0.00  0.00  0.00  1.00  0.00  0.00  0.00  0.00  0.00
  C09                     1.00   0.00  0.00  0.00  1.00  0.00  0.00  0.00  0.00  0.00
  C10                     1.00   0.00  0.00  0.00  1.00  0.00  0.00  0.00  0.00  0.00
  C11                     1.00   0.00  0.00  0.00  1.00  0.00  0.00  0.00  0.00  0.00
  C12                     1.00   0.00  0.00  0.00  1.00  0.00  0.00  0.00  0.00  0.00
  C13                     1.00   0.00  0.00  0.00  1.00  0.00  0.00  0.00  0.00  0.00
  C14                     1.00   0.00  0.00  0.00  1.00  0.00  0.00  0.00  0.00  0.00
  C15                     1.00   0.00  0.00  0.00  1.00  0.00  0.00  0.00  0.00  0.00
  C16                     1.00   0.00  0.00  0.00  1.00  0.00  0.00  0.00  0.00  0.00
  C17                     1.00   0.00  0.00  0.00  1.00  0.00  0.00  0.00  0.00  0.00
  C18                     1.00   0.00  0.00  0.00  1.00  0.00  0.00  0.00  0.00  0.00
  C19                     1.00   0.00  0.00  0.00  1.00  0.00  0.00  0.00  0.00  0.00
  C20                     1.00   0.00  0.00  0.00  1.00  0.00  0.00  0.00  0.00  0.00
  C21                     1.00   0.00  0.00  0.00  1.00  0.00  0.00  0.00  0.00  0.00
  C22                     1.00   0.00  0.00  0.00  1.00  0.00  0.00  0.00  0.00  0.00
  C47                     1.00   0.00  0.00  0.00  1.00  0.00  0.00  0.00  0.00  0.00
  Cout                    1.00   0.00  0.00  0.00  1.00  0.00  0.00  0.00  0.00  0.00
  
  
  *************************
  Conduit Surcharge Summary
  *************************
  
  ----------------------------------------------------------------------------
                                                           Hours        Hours 
                         --------- Hours Full --------   Above Full   Capacity
  Conduit                Both Ends  Upstream  Dnstream   Normal Flow   Limited
  ----------------------------------------------------------------------------
  C23                         0.83      0.83      0.83      0.01         0.01
  C24                         0.83      0.83      0.83      0.83         0.01
  C25                         0.83      0.83      0.83      0.01         0.01
  C26                         0.83      0.83      0.83      0.82         0.01
  C27                         0.83      0.83      0.83      0.01         0.01
  C28                         0.83      0.83      0.83      0.74         0.01
  C29                         0.83      0.83      0.83      0.67         0.01
  C30                         0.83      0.83      0.83      0.83         0.01
  C31                         0.83      0.83      0.83      0.83         0.01
  C32                         0.83      0.83      0.83      0.75         0.01
  C33                         0.83      0.83      0.83      0.71         0.01
  C34                         0.83      0.83      0.83      0.83         0.01
  C35                         0.83      0.83      0.83      0.56         0.01
  C36                         0.83      0.83      0.83      0.83         0.01
  C37                         0.83      0.83      0.83      0.72         0.01
  C38                         0.83      0.83      0.83      0.73         0.01
  C39                         0.83      0.83      0.83      0.67         0.01
  C40                         0.83      0.83      0.83      0.01         0.01
  C41                         0.83      0.83      0.83      0.01         0.01
  C43                         0.83      0.83      0.83      0.01         0.01
  C44                         0.83      0.83      0.83      0.83         0.01
  C45                         0.83      0.83      0.83      0.83         0.01
  C46                         0.83      0.83      0.83      0.83         0.01
  C48                         0.83      0.83      0.83      0.01         0.01
  C42                         0.83      0.83      0.83      0.83         0.01
  C50                         0.83      0.83      0.83      0.83         0.01
  C49                         0.83      0.83      0.83      0.81         0.01
  C01                         0.83      0.83      0.83      0.01         0.01
  C02                         0.83      0.83      0.83      0.01         0.01
  C03                         0.83      0.83      0.83      0.82         0.01
  C04                         0.83      0.83      0.83      0.83         0.01
  C05                         0.83      0.83      0.83      0.83         0.01
  C06                         0.83      0.83      0.83      0.01         0.01
  C07                         0.83      0.83      0.83      0.01         0.01
  C08                         0.83      0.83      0.83      0.01         0.01
  C09                         0.83      0.83      0.83      0.83         0.01
  C10                         0.83      0.83      0.83      0.83         0.01
  C11                         0.83      0.83      0.83      0.01         0.01
  C12                         0.83      0.83      0.83      0.71         0.01
  C13                         0.83      0.83      0.83      0.01         0.01
  C14                         0.83      0.83      0.83      0.83         0.01
  C15                         0.83      0.83      0.83      0.10         0.01
  C16                         0.83      0.83      0.83      0.83         0.01
  C17                         0.83      0.83      0.83      0.83         0.01
  C18                         0.83      0.83      0.83      0.01         0.01
  C19                         0.83      0.83      0.83      0.01         0.01
  C20                         0.83      0.83      0.83      0.83         0.01
  C21                         0.83      0.83      0.83      0.01         0.01
  C22                         0.83      0.83      0.83      0.59         0.01
  C47                         0.83      0.83      0.83      0.83         0.01
  Cout                        0.01      0.83      0.01      0.83         0.01
  
  
  ***************
  Pumping Summary
  ***************
  
  ---------------------------------------------------------------------------------------------------------
                                                  Min       Avg       Max     Total     Power    % Time Off
                        Percent   Number of      Flow      Flow      Flow    Volume     Usage    Pump Curve
  Pump                 Utilized   Start-Ups       CMS       CMS       CMS  10^6 ltr     Kw-hr    Low   High
  ---------------------------------------------------------------------------------------------------------
  P1                       0.00           0      0.00      0.00      0.00     0.000      0.00    0.0    0.0
  

  Analysis begun on:  Mon Nov 18 17:35:44 2024
  Analysis ended on:  Mon Nov 18 17:35:44 2024
  Total elapsed time: < 1 sec