
  EPA STORM WATER MANAGEMENT MODEL - VERSION 5.2 (Build 5.2.4)
  PYSWMM TOOLKIT API - VERSION v1.0 (2023-11-27)
  ------------------------------------------------------------

  WARNING 04: minimum elevation drop used for Conduit C23
  WARNING 04: minimum elevation drop used for Conduit C24
  WARNING 04: minimum elevation drop used for Conduit C25
  WARNING 04: minimum elevation drop used for Conduit C26
  WARNING 04: minimum elevation drop used for Conduit C27
  WARNING 04: minimum elevation drop used for Conduit C28
  WARNING 04: minimum elevation drop used for Conduit C29
  WARNING 04: minimum elevation drop used for Conduit C30
  WARNING 04: minimum elevation drop used for Conduit C31
  WARNING 04: minimum elevation drop used for Conduit C32
  WARNING 04: minimum elevation drop used for Conduit C33
  WARNING 04: minimum elevation drop used for Conduit C34
  WARNING 04: minimum elevation drop used for Conduit C35
  WARNING 04: minimum elevation drop used for Conduit C36
  WARNING 04: minimum elevation drop used for Conduit C37
  WARNING 04: minimum elevation drop used for Conduit C38
  WARNING 04: minimum elevation drop used for Conduit C39
  WARNING 04: minimum elevation drop used for Conduit C40
  WARNING 04: minimum elevation drop used for Conduit C41
  WARNING 04: minimum elevation drop used for Conduit C43
  WARNING 04: minimum elevation drop used for Conduit C44
  WARNING 04: minimum elevation drop used for Conduit C45
  WARNING 04: minimum elevation drop used for Conduit C46
  WARNING 04: minimum elevation drop used for Conduit C48
  WARNING 04: minimum elevation drop used for Conduit C42
  WARNING 04: minimum elevation drop used for Conduit C50
  WARNING 04: minimum elevation drop used for Conduit C49
  WARNING 04: minimum elevation drop used for Conduit C01
  WARNING 04: minimum elevation drop used for Conduit C02
  WARNING 04: minimum elevation drop used for Conduit C03
  WARNING 04: minimum elevation drop used for Conduit C04
  WARNING 04: minimum elevation drop used for Conduit C05
  WARNING 04: minimum elevation drop used for Conduit C06
  WARNING 04: minimum elevation drop used for Conduit C07
  WARNING 04: minimum elevation drop used for Conduit C08
  WARNING 04: minimum elevation drop used for Conduit C09
  WARNING 04: minimum elevation drop used for Conduit C10
  WARNING 04: minimum elevation drop used for Conduit C11
  WARNING 04: minimum elevation drop used for Conduit C12
  WARNING 04: minimum elevation drop used for Conduit C13
  WARNING 04: minimum elevation drop used for Conduit C14
  WARNING 04: minimum elevation drop used for Conduit C15
  WARNING 04: minimum elevation drop used for Conduit C16
  WARNING 04: minimum elevation drop used for Conduit C17
  WARNING 04: minimum elevation drop used for Conduit C18
  WARNING 04: minimum elevation drop used for Conduit C19
  WARNING 04: minimum elevation drop used for Conduit C20
  WARNING 04: minimum elevation drop used for Conduit C21
  WARNING 04: minimum elevation drop used for Conduit C22
  WARNING 04: minimum elevation drop used for Conduit C47
  WARNING 04: minimum elevation drop used for Conduit Cout
  
  ****************
  Analysis Options
  ****************
  Flow Units ............... CMS
  Process Models:
    Rainfall/Runoff ........ YES
    RDII ................... NO
    Snowmelt ............... NO
    Groundwater ............ NO
    Flow Routing ........... YES
    Ponding Allowed ........ NO
    Water Quality .......... NO
  Infiltration Method ...... HORTON
  Flow Routing Method ...... DYNWAVE
  Surcharge Method ......... EXTRAN
  Starting Date ............ 08/28/2013 08:00:00
  Ending Date .............. 08/28/2013 09:40:00
  Antecedent Dry Days ...... 0.0
  Report Time Step ......... 00:10:00
  Wet Time Step ............ 00:05:00
  Dry Time Step ............ 01:00:00
  Routing Time Step ........ 300.00 sec
  Variable Time Step ....... YES
  Maximum Trials ........... 8
  Number of Threads ........ 1
  Head Tolerance ........... 0.001524 m
  
  
  *********************
  Rainfall File Summary
  *********************
  Station    First        Last         Recording   Periods    Periods    Periods
  ID         Date         Date         Frequency  w/Precip    Missing    Malfunc.
  -------------------------------------------------------------------------------
  82         08/28/2013   08/28/2013      10 min        11          0          0

  
  
  **************************        Volume         Depth
  Runoff Quantity Continuity     hectare-m            mm
  **************************     ---------       -------
  Total Precipitation ......       330.623      3306.360
  Evaporation Loss .........         0.000         0.000
  Infiltration Loss ........         0.000         0.000
  Surface Runoff ...........       315.135      3151.480
  Final Storage ............        18.106       181.065
  Continuity Error (%) .....        -0.792
  
  
  **************************        Volume        Volume
  Flow Routing Continuity        hectare-m      10^6 ltr
  **************************     ---------     ---------
  Dry Weather Inflow .......         0.000         0.000
  Wet Weather Inflow .......       303.867      3038.704
  Groundwater Inflow .......         0.000         0.000
  RDII Inflow ..............         0.000         0.000
  External Inflow ..........         0.000         0.000
  External Outflow .........         4.309        43.094
  Flooding Loss ............       298.688      2986.915
  Evaporation Loss .........         0.000         0.000
  Exfiltration Loss ........         0.000         0.000
  Initial Stored Volume ....         0.046         0.463
  Final Stored Volume ......         1.883        18.831
  Continuity Error (%) .....        -0.318
  
  
  *************************
  Highest Continuity Errors
  *************************
  Node J3 (-53.88%)
  Node J17 (-7.97%)
  Node J24 (7.59%)
  Node J9 (-3.98%)
  Node J30 (-3.37%)
  
  
  ***************************
  Time-Step Critical Elements
  ***************************
  Link Cout (98.55%)
  
  
  ********************************
  Highest Flow Instability Indexes
  ********************************
  Link C49 (1)
  Link C26 (1)
  Link C27 (1)
  Link C42 (1)
  Link C50 (1)
  
  
  *********************************
  Most Frequent Nonconverging Nodes
  *********************************
  Node J25 (0.97%)
  Node J10 (0.97%)
  Node J14 (0.97%)
  Node J15 (0.97%)
  Node J18 (0.97%)
  
  
  *************************
  Routing Time Step Summary
  *************************
  Minimum Time Step           :     3.68 sec
  Average Time Step           :    14.53 sec
  Maximum Time Step           :   300.00 sec
  % of Time in Steady State   :     0.00
  Average Iterations per Step :     2.08
  % of Steps Not Converging   :     0.97
  Time Step Frequencies       :
     300.000 - 83.462 sec      :     0.24 %
     83.462 - 23.220 sec      :     0.00 %
     23.220 -  6.460 sec      :    99.03 %
      6.460 -  1.797 sec      :     0.73 %
      1.797 -  0.500 sec      :     0.00 %
  
  
  ***************************
  Subcatchment Runoff Summary
  ***************************
  
  ------------------------------------------------------------------------------------------------------------------------------
                            Total      Total      Total      Total     Imperv       Perv      Total       Total     Peak  Runoff
                           Precip      Runon       Evap      Infil     Runoff     Runoff     Runoff      Runoff   Runoff   Coeff
  Subcatchment                 mm         mm         mm         mm         mm         mm         mm    10^6 ltr      CMS
  ------------------------------------------------------------------------------------------------------------------------------
  S1                      3306.36       0.00       0.00       0.00      32.73    3273.63    3306.36      834.07   248.85   1.000
  S2                      3306.36       0.00       0.00       0.00      30.09    3273.09    3303.18       25.67     7.66   0.999
  S3                      3306.36       0.00       0.00       0.00      30.09    3276.27    3306.36        6.84     2.04   1.000
  S4                      3306.36       0.00       0.00       0.00      30.09    3276.27    3306.36        6.78     2.02   1.000
  S5                      3306.36       0.00       0.00       0.00      30.09    3276.27    3306.36        9.89     2.95   1.000
  S6                      3306.36       0.00       0.00       0.00      30.09    3276.27    3306.36       27.24     8.13   1.000
  S7                      3306.36       0.00       0.00       0.00      30.09    3276.27    3306.36        5.12     1.53   1.000
  S8                      3306.36       0.00       0.00       0.00      30.09    3276.27    3306.36       16.10     4.80   1.000
  S9                      3306.36       0.00       0.00       0.00      30.09    3276.27    3306.36       19.90     5.94   1.000
  S10                     3306.36       0.00       0.00       0.00       0.00    3276.27    3276.27        4.62     1.38   0.991
  S11                     3306.36       0.00       0.00       0.00      30.09    3219.64    3249.72       47.54    14.39   0.983
  S12                     3306.36       0.00       0.00       0.00      30.09    3276.27    3306.36       28.70     8.56   1.000
  S13                     3306.36       0.00       0.00       0.00       0.00    3276.27    3276.27       27.65     8.25   0.991
  S14                     3306.36       0.00       0.00       0.00      27.77    3278.59    3306.36       26.55     7.92   1.000
  S15                     3306.36       0.00       0.00       0.00      27.77    3278.59    3306.36       24.80     7.40   1.000
  S16                     3306.36       0.00       0.00       0.00      25.46    3267.02    3292.48       58.15    17.42   0.996
  S17                     3306.36       0.00       0.00       0.00      25.46    3135.75    3161.21      107.64    32.86   0.956
  S18                     3306.36       0.00       0.00       0.00      25.46    3280.85    3306.31        4.27     1.27   1.000
  S19                     3306.36       0.00       0.00       0.00      25.46       0.00      25.46        0.06     0.02   0.008
  S20                     3306.36       0.00       0.00       0.00      25.46    3280.82    3306.28        3.37     1.01   1.000
  S21                     3306.36       0.00       0.00       0.00      25.46    3248.77    3274.23       54.29    16.35   0.990
  S22                     3306.36       0.00       0.00       0.00      25.46    3280.82    3306.28        1.09     0.33   1.000
  S23                     3306.36       0.00       0.00       0.00      25.46    3280.90    3306.36        1.29     0.38   1.000
  S24                     3306.36       0.00       0.00       0.00      25.46    3280.90    3306.36        1.62     0.48   1.000
  S25                     3306.36       0.00       0.00       0.00      25.46    3280.90    3306.36        1.95     0.58   1.000
  S26                     3306.36       0.00       0.00       0.00      25.46    3280.90    3306.36        2.28     0.68   1.000
  S27                     3306.36       0.00       0.00       0.00      25.46    3280.15    3305.61       27.47     8.20   1.000
  S28                     3306.36       0.00       0.00       0.00      25.46    3252.09    3277.55       29.10     8.76   0.991
  S29                     3306.36       0.00       0.00       0.00      25.46    3280.84    3306.30        3.04     0.91   1.000
  S30                     3306.36       0.00       0.00       0.00      25.46    3091.54    3117.00      198.55    60.65   0.943
  S31                     3306.36       0.00       0.00       0.00      26.45    3279.91    3306.36       44.80    13.37   1.000
  S32                     3306.36       0.00       0.00       0.00      26.45    3279.91    3306.36       13.79     4.11   1.000
  S33                     3306.36       0.00       0.00       0.00      31.08    3275.28    3306.36       10.28     3.07   1.000
  S34                     3306.36       0.00       0.00       0.00      31.08    3275.28    3306.36       10.88     3.25   1.000
  S35                     3306.36       0.00       0.00       0.00      30.09    3276.27    3306.36       13.29     3.97   1.000
  S36                     3306.36       0.00       0.00       0.00      30.09    3276.27    3306.36        5.46     1.63   1.000
  S37                     3306.36       0.00       0.00       0.00      30.09    3276.27    3306.36       11.90     3.55   1.000
  S38                     3306.36       0.00       0.00       0.00      30.09    3276.27    3306.36        0.53     0.16   1.000
  S39                     3306.36       0.00       0.00       0.00      30.09    3276.27    3306.36       13.56     4.04   1.000
  S40                     3306.36       0.00       0.00       0.00      30.09    3276.27    3306.36        4.66     1.39   1.000
  S41                     3306.36       0.00       0.00       0.00      30.09    3276.27    3306.36        7.51     2.24   1.000
  S42                     3306.36       0.00       0.00       0.00      30.09    3276.27    3306.36       10.45     3.12   1.000
  S43                     3306.36       0.00       0.00       0.00      30.09    3276.27    3306.36       23.81     7.10   1.000
  S44                     3306.36       0.00       0.00       0.00      30.09    3276.27    3306.36       17.26     5.15   1.000
  S45                     3306.36       0.00       0.00       0.00      30.09    3276.27    3306.36        1.75     0.52   1.000
  S46                     3306.36       0.00       0.00       0.00      30.09    3276.27    3306.36       16.00     4.77   1.000
  S47                     3306.36       0.00       0.00       0.00      30.09    3276.27    3306.36       32.34     9.65   1.000
  S48                     3306.36       0.00       0.00       0.00      30.09    3276.27    3306.36       37.36    11.15   1.000
  S49                     3306.36       0.00       0.00       0.00      30.09    3276.27    3306.36       22.71     6.78   1.000
  S50                     3306.36       0.00       0.00       0.00      30.09    3276.27    3306.36       18.71     5.58   1.000
  S51                     3306.36       0.00       0.00       0.00      30.09    3276.27    3306.36       11.04     3.29   1.000
  S52                     3306.36       0.00       0.00       0.00      30.09    3276.27    3306.36       29.26     8.73   1.000
  S53                     3306.36       0.00       0.00       0.00      30.09    3248.83    3278.92       39.94    12.01   0.992
  S54                     3306.36       0.00       0.00       0.00      30.09    3271.22    3301.30       15.09     4.51   0.998
  S55                     3306.36       0.00       0.00       0.00      30.09    3276.27    3306.36        1.26     0.37   1.000
  S56                     3306.36       0.00       0.00       0.00      30.09    3276.20    3306.29        1.26     0.37   1.000
  S57                     3306.36       0.00       0.00       0.00      30.09    3276.27    3306.36       17.09     5.10   1.000
  S58                     3306.36       0.00       0.00       0.00      30.09    3276.27    3306.36       21.95     6.55   1.000
  S59                     3306.36       0.00       0.00       0.00      30.09    3276.27    3306.36       21.33     6.36   1.000
  S60                     3306.36       0.00       0.00       0.00      25.46    3278.53    3303.99       12.98     3.88   0.999
  S61                     3306.36       0.00       0.00       0.00      25.46       0.00      25.46        0.08     0.02   0.008
  S62                     3306.36       0.00       0.00       0.00      25.46    3059.42    3084.88      165.32    50.51   0.933
  S63                     3306.36       0.00       0.00       0.00      25.46    3280.90    3306.36       31.08     9.27   1.000
  S64                     3306.36       0.00       0.00       0.00      25.46    3280.90    3306.36       84.15    25.11   1.000
  S65                     3306.36       0.00       0.00       0.00      25.46    3280.90    3306.36       13.42     4.01   1.000
  S66                     3306.36       0.00       0.00       0.00      25.46    3280.90    3306.36       21.66     6.46   1.000
  S67                     3306.36       0.00       0.00       0.00      25.46    3280.90    3306.36       40.47    12.07   1.000
  S68                     3306.36       0.00       0.00       0.00      25.46    3280.90    3306.36       47.45    14.16   1.000
  S69                     3306.36       0.00       0.00       0.00      25.46       0.00      25.46        0.63     0.19   0.008
  S70                     3306.36       0.00       0.00       0.00      25.46    3247.24    3272.70       85.65    25.80   0.990
  S71                     3306.36       0.00       0.00       0.00      30.09    3276.27    3306.36       48.64    14.51   1.000
  S72                     3306.36       0.00       0.00       0.00      25.46    3269.58    3295.03       16.34     4.89   0.997
  S73                     3306.36       0.00       0.00       0.00      25.46    3280.90    3306.36       69.30    20.68   1.000
  S74                     3306.36       0.00       0.00       0.00      25.46       0.00      25.46        0.17     0.05   0.008
  S75                     3306.36       0.00       0.00       0.00      25.46    3280.90    3306.36        2.22     0.66   1.000
  S76                     3306.36       0.00       0.00       0.00      25.46    3280.90    3306.36       43.68    13.03   1.000
  S77                     3306.36       0.00       0.00       0.00      25.46    3280.90    3306.36       35.35    10.55   1.000
  S78                     3306.36       0.00       0.00       0.00      25.46    3280.90    3306.36       25.62     7.65   1.000
  S79                     3306.36       0.00       0.00       0.00      30.09    3276.27    3306.36       22.45     6.70   1.000
  S80                     3306.36       0.00       0.00       0.00      25.46    3280.25    3305.70        9.12     2.72   1.000
  S81                     3306.36       0.00       0.00       0.00      25.46    3280.90    3306.36       37.40    11.16   1.000
  S82                     3306.36       0.00       0.00       0.00      25.46    3280.90    3306.36       36.50    10.89   1.000
  S83                     3306.36       0.00       0.00       0.00      25.46    3280.90    3306.36       23.48     7.00   1.000
  S84                     3306.36       0.00       0.00       0.00      30.09    3276.27    3306.36       15.34     4.58   1.000
  S85                     3306.36       0.00       0.00       0.00      30.09    3255.67    3285.75       40.61    12.19   0.994
  S86                     3306.36       0.00       0.00       0.00       0.00    3276.27    3276.27       37.91    11.31   0.991
  S87                     3306.36       0.00       0.00       0.00      30.09    3276.27    3306.36       41.07    12.25   1.000
  S88                     3306.36       0.00       0.00       0.00      30.09    3276.27    3306.36        7.41     2.21   1.000
  S89                     3306.36       0.00       0.00       0.00      30.09    3276.27    3306.36       33.43     9.97   1.000
  S90                     3306.36       0.00       0.00       0.00       0.00    3276.27    3276.27       16.09     4.80   0.991
  S91                     3306.36       0.00       0.00       0.00      30.09    3276.27    3306.36        5.46     1.63   1.000
  
  
  ******************
  Node Depth Summary
  ******************
  
  ---------------------------------------------------------------------------------
                                 Average  Maximum  Maximum  Time of Max    Reported
                                   Depth    Depth      HGL   Occurrence   Max Depth
  Node                 Type       Meters   Meters   Meters  days hr:min      Meters
  ---------------------------------------------------------------------------------
  J7                   JUNCTION     2.49     2.50     2.50     0  00:05        2.50
  J13                  JUNCTION     2.49     2.50     2.50     0  00:05        2.50
  J19                  JUNCTION     2.49     2.50     2.50     0  00:05        2.50
  J25                  JUNCTION     2.49     2.50     2.50     0  00:05        2.50
  J1                   JUNCTION     2.49     2.50     2.50     0  00:05        2.50
  J2                   JUNCTION     2.49     2.50     2.50     0  00:05        2.50
  J3                   JUNCTION     2.48     2.50     2.50     0  00:05        2.50
  J4                   JUNCTION     2.49     2.50     2.50     0  00:05        2.50
  J5                   JUNCTION     2.49     2.50     2.50     0  00:05        2.50
  J6                   JUNCTION     2.49     2.50     2.50     0  00:05        2.50
  J8                   JUNCTION     2.49     2.50     2.50     0  00:05        2.50
  J9                   JUNCTION     2.49     2.50     2.50     0  00:05        2.50
  J10                  JUNCTION     2.49     2.50     2.50     0  00:05        2.50
  J11                  JUNCTION     2.49     2.50     2.50     0  00:05        2.50
  J12                  JUNCTION     2.49     2.50     2.50     0  00:05        2.50
  J14                  JUNCTION     2.49     2.50     2.50     0  00:05        2.50
  J15                  JUNCTION     2.49     2.50     2.50     0  00:05        2.50
  J16                  JUNCTION     2.49     2.50     2.50     0  00:05        2.50
  J17                  JUNCTION     2.49     2.50     2.50     0  00:05        2.50
  J18                  JUNCTION     2.49     2.50     2.50     0  00:05        2.50
  J20                  JUNCTION     2.49     2.50     2.50     0  00:05        2.50
  J21                  JUNCTION     2.49     2.50     2.50     0  00:05        2.50
  J22                  JUNCTION     2.49     2.50     2.50     0  00:05        2.50
  J23                  JUNCTION     2.49     2.50     2.50     0  00:05        2.50
  J24                  JUNCTION     2.49     2.50     2.50     0  00:05        2.50
  J26                  JUNCTION     2.49     2.50     2.50     0  00:05        2.50
  J27                  JUNCTION     2.49     2.50     2.50     0  00:05        2.50
  J29                  JUNCTION     2.49     2.50     2.50     0  00:05        2.50
  J30                  JUNCTION     2.49     2.50     2.50     0  00:05        2.50
  J31                  JUNCTION     2.49     2.50     2.50     0  00:05        2.50
  J33                  JUNCTION     2.49     2.50     2.50     0  00:05        2.50
  J32                  JUNCTION     2.49     2.50     2.50     0  00:05        2.50
  J28                  JUNCTION     2.49     2.50     2.50     0  00:05        2.50
  OF                   OUTFALL      1.37     1.41     1.41     0  00:05        1.37
  
  
  *******************
  Node Inflow Summary
  *******************
  
  -------------------------------------------------------------------------------------------------
                                  Maximum  Maximum                  Lateral       Total        Flow
                                  Lateral    Total  Time of Max      Inflow      Inflow     Balance
                                   Inflow   Inflow   Occurrence      Volume      Volume       Error
  Node                 Type           CMS      CMS  days hr:min    10^6 ltr    10^6 ltr     Percent
  -------------------------------------------------------------------------------------------------
  J7                   JUNCTION    66.852   66.999     0  01:30         211         215       0.470
  J13                  JUNCTION     5.628    5.702     0  01:30        18.1        19.4      -2.141
  J19                  JUNCTION   266.710  266.710     0  01:30         862         862       0.344
  J25                  JUNCTION    32.859   32.935     0  01:30         104         105      -1.212
  J1                   JUNCTION    22.388   22.630     0  01:25        72.4        78.8       3.014
  J2                   JUNCTION    16.819   16.881     0  01:25        54.4        55.6       0.529
  J3                   JUNCTION     0.750    7.338     0  00:05        2.42        5.66     -35.013
  J4                   JUNCTION    48.702   48.943     0  01:25         157         165       1.473
  J5                   JUNCTION    40.268   40.414     0  01:25         130         132      -0.232
  J6                   JUNCTION    17.618   17.699     0  01:25          57        59.2       0.884
  J8                   JUNCTION    27.108   27.187     0  01:25        87.7        89.5       0.452
  J9                   JUNCTION    12.191   12.313     0  01:30        39.2        40.5      -3.826
  J10                  JUNCTION    18.191   18.260     0  01:25        58.8        59.8      -0.233
  J11                  JUNCTION    19.543   19.696     0  01:25        63.2        66.5       0.995
  J12                  JUNCTION    20.677   20.917     0  01:25        66.9        73.1       1.628
  J14                  JUNCTION    17.520   17.588     0  01:25        56.7        57.4       0.283
  J15                  JUNCTION    25.072   25.146     0  01:30        80.7        81.9      -0.402
  J16                  JUNCTION    14.511   14.583     0  01:25        46.9        47.8      -2.128
  J17                  JUNCTION     0.189    3.675     0  00:05        0.61        3.07      -7.378
  J18                  JUNCTION     0.661    4.268     0  00:05        2.14        4.09       1.980
  J20                  JUNCTION    48.978   48.978     0  01:30         158         158       0.065
  J21                  JUNCTION    16.172   16.334     0  01:25        52.3        57.5       1.644
  J22                  JUNCTION    33.199   33.347     0  01:30         107         110       0.650
  J23                  JUNCTION    17.420   17.572     0  01:30        56.1        60.7       1.475
  J24                  JUNCTION     2.297    7.841     0  00:05        7.43        9.98       8.216
  J26                  JUNCTION    14.284   14.364     0  01:25        46.2        48.1       0.216
  J27                  JUNCTION    12.528   12.604     0  01:25        40.5        41.9      -0.391
  J29                  JUNCTION    20.548   20.680     0  01:25        66.5          68      -0.718
  J30                  JUNCTION     0.000    1.055     0  00:05           0        1.66      -3.257
  J31                  JUNCTION    60.650   60.650     0  01:30         191         191       0.247
  J33                  JUNCTION    20.218   20.218     0  01:30        65.4        65.4       0.437
  J32                  JUNCTION     9.224    9.300     0  01:25        29.8        31.1      -0.360
  J28                  JUNCTION    14.748   22.822     0  00:05        47.7        54.1       3.349
  OF                   OUTFALL      0.000    7.967     0  00:05           0        43.1       0.000
  
  
  **********************
  Node Surcharge Summary
  **********************
  
  Surcharging occurs when water rises above the top of the highest conduit.
  ---------------------------------------------------------------------
                                               Max. Height   Min. Depth
                                   Hours       Above Crown    Below Rim
  Node                 Type      Surcharged         Meters       Meters
  ---------------------------------------------------------------------
  J7                   JUNCTION        1.67          0.850        0.000
  J13                  JUNCTION        1.66          0.850        0.000
  J19                  JUNCTION        1.67          0.850        0.000
  J25                  JUNCTION        1.67          0.850        0.000
  J1                   JUNCTION        1.67          0.850        0.000
  J2                   JUNCTION        1.67          0.850        0.000
  J3                   JUNCTION        1.66          0.850        0.000
  J4                   JUNCTION        1.67          0.850        0.000
  J5                   JUNCTION        1.67          0.850        0.000
  J6                   JUNCTION        1.67          0.850        0.000
  J8                   JUNCTION        1.67          0.850        0.000
  J9                   JUNCTION        1.67          0.850        0.000
  J10                  JUNCTION        1.67          0.850        0.000
  J11                  JUNCTION        1.67          0.850        0.000
  J12                  JUNCTION        1.67          0.850        0.000
  J14                  JUNCTION        1.67          0.850        0.000
  J15                  JUNCTION        1.67          0.850        0.000
  J16                  JUNCTION        1.67          0.850        0.000
  J17                  JUNCTION        1.66          0.850        0.000
  J18                  JUNCTION        1.67          0.850        0.000
  J20                  JUNCTION        1.67          0.850        0.000
  J21                  JUNCTION        1.67          0.850        0.000
  J22                  JUNCTION        1.67          0.850        0.000
  J23                  JUNCTION        1.67          0.850        0.000
  J24                  JUNCTION        1.67          0.850        0.000
  J26                  JUNCTION        1.67          0.850        0.000
  J27                  JUNCTION        1.66          0.850        0.000
  J29                  JUNCTION        1.67          0.850        0.000
  J30                  JUNCTION        1.67          0.850        0.000
  J31                  JUNCTION        1.67          0.850        0.000
  J33                  JUNCTION        1.67          0.850        0.000
  J32                  JUNCTION        1.67          0.850        0.000
  J28                  JUNCTION        1.67          0.850        0.000
  
  
  *********************
  Node Flooding Summary
  *********************
  
  Flooding refers to all water that overflows a node, whether it ponds or not.
  --------------------------------------------------------------------------
                                                             Total   Maximum
                                 Maximum   Time of Max       Flood    Ponded
                        Hours       Rate    Occurrence      Volume     Depth
  Node                 Flooded       CMS   days hr:min    10^6 ltr    Meters
  --------------------------------------------------------------------------
  J7                      1.67    66.927      0  01:30     214.706     0.000
  J13                     1.58     5.630      0  01:30      18.240     0.000
  J19                     1.67   259.281      0  01:30     816.893     0.000
  J25                     1.57    32.749      0  01:30     102.220     0.000
  J1                      1.58    22.629      0  01:25      76.663     0.000
  J2                      1.58    16.735      0  01:30      52.419     0.000
  J3                      1.57     6.100      0  00:05       4.607     0.000
  J4                      1.67    48.861      0  01:25     163.706     0.000
  J5                      1.58    40.192      0  01:30     127.455     0.000
  J6                      1.58    17.474      0  01:30      54.490     0.000
  J8                      1.67    27.043      0  01:30      86.627     0.000
  J9                      1.58    12.184      0  01:30      38.600     0.000
  J10                     1.58    18.113      0  01:30      56.750     0.000
  J11                     1.58    19.536      0  01:30      62.197     0.000
  J12                     1.67    20.916      0  01:25      73.148     0.000
  J14                     1.58    17.437      0  01:30      54.589     0.000
  J15                     1.58    24.941      0  01:30      78.487     0.000
  J16                     1.58    14.437      0  01:30      45.672     0.000
  J17                     1.58     0.387      0  00:05       1.169     0.000
  J18                     1.58     0.662      0  01:25       2.192     0.000
  J20                     1.58    48.829      0  01:30     154.289     0.000
  J21                     1.67    16.254      0  01:25      55.753     0.000
  J22                     1.58    33.265      0  01:30     107.002     0.000
  J23                     1.67    17.495      0  01:30      59.088     0.000
  J24                     1.58     2.296      0  01:25       7.326     0.000
  J26                     1.58    14.283      0  01:30      45.605     0.000
  J27                     1.57    12.468      0  01:30      39.464     0.000
  J29                     1.58    20.524      0  01:30      64.912     0.000
  J30                     1.58     0.163      0  00:13       0.560     0.000
  J31                     1.67    60.434      0  01:30     189.100     0.000
  J33                     1.67    20.146      0  01:30      64.248     0.000
  J32                     1.58     9.168      0  01:30      28.853     0.000
  J28                     1.67    17.000      0  00:05      54.098     0.000
  
  
  ***********************
  Outfall Loading Summary
  ***********************
  
  -----------------------------------------------------------
                         Flow       Avg       Max       Total
                         Freq      Flow      Flow      Volume
  Outfall Node           Pcnt       CMS       CMS    10^6 ltr
  -----------------------------------------------------------
  OF                   100.00     7.338     7.967      43.094
  -----------------------------------------------------------
  System               100.00     7.338     7.967      43.094
  
  
  ********************
  Link Flow Summary
  ********************
  
  -----------------------------------------------------------------------------
                                 Maximum  Time of Max   Maximum    Max/    Max/
                                  |Flow|   Occurrence   |Veloc|    Full    Full
  Link                 Type          CMS  days hr:min     m/sec    Flow   Depth
  -----------------------------------------------------------------------------
  P1                   PUMP        0.000     0  00:00                          
  C23                  CONDUIT     0.321     0  00:05      0.15    2.79    1.00
  C24                  CONDUIT     1.362     0  00:05      0.64   11.80    1.00
  C25                  CONDUIT     0.846     0  00:05      0.40    6.76    1.00
  C26                  CONDUIT     2.498     0  00:05      1.17   19.54    1.00
  C27                  CONDUIT     1.762     0  00:05      0.82   14.50    1.00
  C28                  CONDUIT     9.014     0  00:05      4.22   62.13    1.00
  C29                  CONDUIT     3.042     0  00:05      1.42   21.42    1.00
  C30                  CONDUIT     3.601     0  00:05      1.68   31.64    1.00
  C31                  CONDUIT     3.347     0  00:05      1.57   29.30    1.00
  C32                  CONDUIT    10.110     0  00:05      4.73   65.35    1.00
  C33                  CONDUIT     9.312     0  00:05      4.35   54.48    1.00
  C34                  CONDUIT     5.348     0  00:05      2.50   42.56    1.00
  C35                  CONDUIT     0.731     0  00:05      0.34    7.78    1.00
  C36                  CONDUIT     3.303     0  00:05      1.54   31.17    1.00
  C37                  CONDUIT     1.735     0  00:05      0.81   11.91    1.00
  C38                  CONDUIT     3.890     0  00:05      1.82   27.12    1.00
  C39                  CONDUIT     2.663     0  00:05      1.33   16.88    1.00
  C40                  CONDUIT     4.896     0  00:05      2.29   34.91    1.00
  C41                  CONDUIT     3.196     0  00:05      1.49   24.79    1.00
  C43                  CONDUIT     0.965     0  00:05      0.45    7.36    1.00
  C44                  CONDUIT     4.635     0  00:05      2.17   39.57    1.00
  C45                  CONDUIT     0.300     0  00:05      0.14    2.57    1.00
  C46                  CONDUIT     0.755     0  00:05      0.35    6.25    1.00
  C48                  CONDUIT     3.978     0  00:05      1.86   31.41    1.00
  C42                  CONDUIT     0.980     0  00:05      0.46    7.77    1.00
  C50                  CONDUIT     0.845     0  00:05      0.40    8.17    1.00
  C49                  CONDUIT     1.582     0  00:05      0.74   13.81    1.00
  C01                  CONDUIT     6.310     0  00:05      2.95   51.81    1.00
  C02                  CONDUIT     2.335     0  00:05      1.09   18.47    1.00
  C03                  CONDUIT     5.458     0  00:05      2.55   43.59    1.00
  C04                  CONDUIT     2.395     0  00:05      1.12   18.84    1.00
  C05                  CONDUIT     7.535     0  00:05      3.52   60.09    1.00
  C06                  CONDUIT     0.370     0  00:05      0.17    3.25    1.00
  C07                  CONDUIT     5.571     0  00:05      2.61   48.86    1.00
  C08                  CONDUIT     1.262     0  00:05      0.59   10.33    1.00
  C09                  CONDUIT     3.819     0  00:05      1.79   33.44    1.00
  C10                  CONDUIT     0.525     0  00:05      0.25    4.19    1.00
  C11                  CONDUIT     1.909     0  00:05      0.89   16.77    1.00
  C12                  CONDUIT     4.332     0  00:05      2.03   37.32    1.00
  C13                  CONDUIT     3.443     0  00:05      1.61   29.96    1.00
  C14                  CONDUIT     3.650     0  00:05      1.71   29.00    1.00
  C15                  CONDUIT     0.737     0  00:05      0.34    5.86    1.00
  C16                  CONDUIT     3.058     0  00:05      1.43   26.84    1.00
  C17                  CONDUIT     1.798     0  00:05      0.84   15.87    1.00
  C18                  CONDUIT     3.648     0  00:05      1.71   32.43    1.00
  C19                  CONDUIT     3.466     0  00:05      1.62   27.54    1.00
  C20                  CONDUIT     3.735     0  00:05      1.75   33.25    1.00
  C21                  CONDUIT     1.570     0  00:05      0.73   14.83    1.00
  C22                  CONDUIT     4.923     0  00:05      2.30   38.86    1.00
  C47                  CONDUIT     0.514     0  00:05      0.24    5.28    1.00
  Cout                 CONDUIT     7.967     0  00:05      3.85   62.91    0.93
  
  
  ***************************
  Flow Classification Summary
  ***************************
  
  -------------------------------------------------------------------------------------
                      Adjusted    ---------- Fraction of Time in Flow Class ---------- 
                       /Actual         Up    Down  Sub   Sup   Up    Down  Norm  Inlet 
  Conduit               Length    Dry  Dry   Dry   Crit  Crit  Crit  Crit  Ltd   Ctrl  
  -------------------------------------------------------------------------------------
  C23                     1.00   0.00  0.00  0.00  1.00  0.00  0.00  0.00  0.00  0.00
  C24                     1.00   0.00  0.00  0.00  1.00  0.00  0.00  0.00  0.00  0.00
  C25                     1.00   0.00  0.00  0.00  1.00  0.00  0.00  0.00  0.00  0.00
  C26                     1.00   0.00  0.00  0.00  1.00  0.00  0.00  0.00  0.00  0.00
  C27                     1.00   0.00  0.00  0.00  1.00  0.00  0.00  0.00  0.00  0.00
  C28                     1.00   0.00  0.00  0.00  1.00  0.00  0.00  0.00  0.00  0.00
  C29                     1.00   0.00  0.00  0.00  1.00  0.00  0.00  0.00  0.00  0.00
  C30                     1.00   0.00  0.00  0.00  1.00  0.00  0.00  0.00  0.00  0.00
  C31                     1.00   0.00  0.00  0.00  1.00  0.00  0.00  0.00  0.00  0.00
  C32                     1.00   0.00  0.00  0.00  1.00  0.00  0.00  0.00  0.00  0.00
  C33                     1.00   0.00  0.00  0.00  1.00  0.00  0.00  0.00  0.00  0.00
  C34                     1.00   0.00  0.00  0.00  1.00  0.00  0.00  0.00  0.00  0.00
  C35                     1.00   0.00  0.00  0.00  1.00  0.00  0.00  0.00  0.00  0.00
  C36                     1.00   0.00  0.00  0.00  1.00  0.00  0.00  0.00  0.00  0.00
  C37                     1.00   0.00  0.00  0.00  1.00  0.00  0.00  0.00  0.00  0.00
  C38                     1.00   0.00  0.00  0.00  1.00  0.00  0.00  0.00  0.00  0.00
  C39                     1.00   0.00  0.00  0.00  1.00  0.00  0.00  0.00  0.00  0.00
  C40                     1.00   0.00  0.00  0.00  1.00  0.00  0.00  0.00  0.00  0.00
  C41                     1.00   0.00  0.00  0.00  1.00  0.00  0.00  0.00  0.00  0.00
  C43                     1.00   0.00  0.00  0.00  1.00  0.00  0.00  0.00  0.00  0.00
  C44                     1.00   0.00  0.00  0.00  1.00  0.00  0.00  0.00  0.00  0.00
  C45                     1.00   0.00  0.00  0.00  1.00  0.00  0.00  0.00  0.00  0.00
  C46                     1.00   0.00  0.00  0.00  1.00  0.00  0.00  0.00  0.00  0.00
  C48                     1.00   0.00  0.00  0.00  1.00  0.00  0.00  0.00  0.00  0.00
  C42                     1.00   0.00  0.00  0.00  1.00  0.00  0.00  0.00  0.00  0.00
  C50                     1.00   0.00  0.00  0.00  1.00  0.00  0.00  0.00  0.00  0.00
  C49                     1.00   0.00  0.00  0.00  1.00  0.00  0.00  0.00  0.00  0.00
  C01                     1.00   0.00  0.00  0.00  1.00  0.00  0.00  0.00  0.00  0.00
  C02                     1.00   0.00  0.00  0.00  1.00  0.00  0.00  0.00  0.00  0.00
  C03                     1.00   0.00  0.00  0.00  1.00  0.00  0.00  0.00  0.00  0.00
  C04                     1.00   0.00  0.00  0.00  1.00  0.00  0.00  0.00  0.00  0.00
  C05                     1.00   0.00  0.00  0.00  1.00  0.00  0.00  0.00  0.00  0.00
  C06                     1.00   0.00  0.00  0.00  1.00  0.00  0.00  0.00  0.00  0.00
  C07                     1.00   0.00  0.00  0.00  1.00  0.00  0.00  0.00  0.00  0.00
  C08                     1.00   0.00  0.00  0.00  1.00  0.00  0.00  0.00  0.00  0.00
  C09                     1.00   0.00  0.00  0.00  1.00  0.00  0.00  0.00  0.00  0.00
  C10                     1.00   0.00  0.00  0.00  1.00  0.00  0.00  0.00  0.00  0.00
  C11                     1.00   0.00  0.00  0.00  1.00  0.00  0.00  0.00  0.00  0.00
  C12                     1.00   0.00  0.00  0.00  1.00  0.00  0.00  0.00  0.00  0.00
  C13                     1.00   0.00  0.00  0.00  1.00  0.00  0.00  0.00  0.00  0.00
  C14                     1.00   0.00  0.00  0.00  1.00  0.00  0.00  0.00  0.00  0.00
  C15                     1.00   0.00  0.00  0.00  1.00  0.00  0.00  0.00  0.00  0.00
  C16                     1.00   0.00  0.00  0.00  1.00  0.00  0.00  0.00  0.00  0.00
  C17                     1.00   0.00  0.00  0.00  1.00  0.00  0.00  0.00  0.00  0.00
  C18                     1.00   0.00  0.00  0.00  1.00  0.00  0.00  0.00  0.00  0.00
  C19                     1.00   0.00  0.00  0.00  1.00  0.00  0.00  0.00  0.00  0.00
  C20                     1.00   0.00  0.00  0.00  1.00  0.00  0.00  0.00  0.00  0.00
  C21                     1.00   0.00  0.00  0.00  1.00  0.00  0.00  0.00  0.00  0.00
  C22                     1.00   0.00  0.00  0.00  1.00  0.00  0.00  0.00  0.00  0.00
  C47                     1.00   0.00  0.00  0.00  1.00  0.00  0.00  0.00  0.00  0.00
  Cout                    1.00   0.00  0.00  0.00  1.00  0.00  0.00  0.00  0.00  0.00
  
  
  *************************
  Conduit Surcharge Summary
  *************************
  
  ----------------------------------------------------------------------------
                                                           Hours        Hours 
                         --------- Hours Full --------   Above Full   Capacity
  Conduit                Both Ends  Upstream  Dnstream   Normal Flow   Limited
  ----------------------------------------------------------------------------
  C23                         1.66      1.67      1.66      0.49         0.09
  C24                         1.66      1.66      1.67      0.09         0.08
  C25                         1.66      1.66      1.67      0.34         0.01
  C26                         1.67      1.67      1.67      0.78         0.08
  C27                         1.66      1.67      1.66      0.67         0.09
  C28                         1.66      1.66      1.67      0.76         0.01
  C29                         1.67      1.67      1.67      0.81         0.09
  C30                         1.67      1.67      1.67      1.00         0.01
  C31                         1.67      1.67      1.67      1.01         0.01
  C32                         1.66      1.67      1.66      0.64         0.08
  C33                         1.66      1.66      1.67      0.72         0.01
  C34                         1.67      1.67      1.67      0.94         0.09
  C35                         1.67      1.67      1.67      1.11         0.08
  C36                         1.67      1.67      1.67      1.09         0.08
  C37                         1.67      1.67      1.67      0.65         0.01
  C38                         1.66      1.67      1.66      0.40         0.01
  C39                         1.66      1.66      1.66      0.66         0.08
  C40                         1.67      1.67      1.67      0.85         0.09
  C41                         1.67      1.67      1.67      0.89         0.01
  C43                         1.67      1.67      1.67      0.74         0.09
  C44                         1.67      1.67      1.67      0.98         0.09
  C45                         1.67      1.67      1.67      0.58         0.01
  C46                         1.67      1.67      1.67      0.86         0.01
  C48                         1.67      1.67      1.67      0.93         0.01
  C42                         1.67      1.67      1.67      0.77         0.01
  C50                         1.67      1.67      1.67      0.48         0.09
  C49                         1.66      1.66      1.67      0.99         0.01
  C01                         1.67      1.67      1.67      0.97         0.01
  C02                         1.67      1.67      1.67      0.91         0.08
  C03                         1.67      1.67      1.67      0.95         0.01
  C04                         1.66      1.67      1.66      0.91         0.09
  C05                         1.66      1.66      1.67      0.91         0.08
  C06                         1.67      1.67      1.67      0.68         0.01
  C07                         1.67      1.67      1.67      1.02         0.09
  C08                         1.67      1.67      1.67      0.82         0.09
  C09                         1.66      1.67      1.66      0.97         0.01
  C10                         1.66      1.67      1.66      0.67         0.09
  C11                         1.67      1.67      1.67      0.98         0.01
  C12                         1.66      1.67      1.66      0.97         0.09
  C13                         1.66      1.66      1.66      0.98         0.08
  C14                         1.66      1.66      1.66      0.38         0.08
  C15                         1.66      1.66      1.67      0.09         0.01
  C16                         1.67      1.67      1.67      1.01         0.01
  C17                         1.66      1.66      1.67      1.00         0.01
  C18                         1.67      1.67      1.67      1.04         0.08
  C19                         1.66      1.67      1.66      0.85         0.08
  C20                         1.67      1.67      1.67      0.99         0.01
  C21                         1.66      1.66      1.67      0.98         0.01
  C22                         1.67      1.67      1.67      0.93         0.01
  C47                         1.67      1.67      1.67      0.92         0.01
  Cout                        0.01      1.67      0.01      1.67         0.01
  
  
  ***************
  Pumping Summary
  ***************
  
  ---------------------------------------------------------------------------------------------------------
                                                  Min       Avg       Max     Total     Power    % Time Off
                        Percent   Number of      Flow      Flow      Flow    Volume     Usage    Pump Curve
  Pump                 Utilized   Start-Ups       CMS       CMS       CMS  10^6 ltr     Kw-hr    Low   High
  ---------------------------------------------------------------------------------------------------------
  P1                       0.00           0      0.00      0.00      0.00     0.000      0.00    0.0    0.0
  

  Analysis begun on:  Mon Nov 18 16:46:31 2024
  Analysis ended on:  Mon Nov 18 16:46:31 2024
  Total elapsed time: < 1 sec