
  EPA STORM WATER MANAGEMENT MODEL - VERSION 5.2 (Build 5.2.4)
  PYSWMM TOOLKIT API - VERSION v1.0 (2023-11-27)
  ------------------------------------------------------------

  WARNING 04: minimum elevation drop used for Conduit C23
  WARNING 04: minimum elevation drop used for Conduit C24
  WARNING 04: minimum elevation drop used for Conduit C25
  WARNING 04: minimum elevation drop used for Conduit C26
  WARNING 04: minimum elevation drop used for Conduit C27
  WARNING 04: minimum elevation drop used for Conduit C28
  WARNING 04: minimum elevation drop used for Conduit C29
  WARNING 04: minimum elevation drop used for Conduit C30
  WARNING 04: minimum elevation drop used for Conduit C31
  WARNING 04: minimum elevation drop used for Conduit C32
  WARNING 04: minimum elevation drop used for Conduit C33
  WARNING 04: minimum elevation drop used for Conduit C34
  WARNING 04: minimum elevation drop used for Conduit C35
  WARNING 04: minimum elevation drop used for Conduit C36
  WARNING 04: minimum elevation drop used for Conduit C37
  WARNING 04: minimum elevation drop used for Conduit C38
  WARNING 04: minimum elevation drop used for Conduit C39
  WARNING 04: minimum elevation drop used for Conduit C40
  WARNING 04: minimum elevation drop used for Conduit C41
  WARNING 04: minimum elevation drop used for Conduit C43
  WARNING 04: minimum elevation drop used for Conduit C44
  WARNING 04: minimum elevation drop used for Conduit C45
  WARNING 04: minimum elevation drop used for Conduit C46
  WARNING 04: minimum elevation drop used for Conduit C48
  WARNING 04: minimum elevation drop used for Conduit C42
  WARNING 04: minimum elevation drop used for Conduit C50
  WARNING 04: minimum elevation drop used for Conduit C49
  WARNING 04: minimum elevation drop used for Conduit C01
  WARNING 04: minimum elevation drop used for Conduit C02
  WARNING 04: minimum elevation drop used for Conduit C03
  WARNING 04: minimum elevation drop used for Conduit C04
  WARNING 04: minimum elevation drop used for Conduit C05
  WARNING 04: minimum elevation drop used for Conduit C06
  WARNING 04: minimum elevation drop used for Conduit C07
  WARNING 04: minimum elevation drop used for Conduit C08
  WARNING 04: minimum elevation drop used for Conduit C09
  WARNING 04: minimum elevation drop used for Conduit C10
  WARNING 04: minimum elevation drop used for Conduit C11
  WARNING 04: minimum elevation drop used for Conduit C12
  WARNING 04: minimum elevation drop used for Conduit C13
  WARNING 04: minimum elevation drop used for Conduit C14
  WARNING 04: minimum elevation drop used for Conduit C15
  WARNING 04: minimum elevation drop used for Conduit C16
  WARNING 04: minimum elevation drop used for Conduit C17
  WARNING 04: minimum elevation drop used for Conduit C18
  WARNING 04: minimum elevation drop used for Conduit C19
  WARNING 04: minimum elevation drop used for Conduit C20
  WARNING 04: minimum elevation drop used for Conduit C21
  WARNING 04: minimum elevation drop used for Conduit C22
  WARNING 04: minimum elevation drop used for Conduit C47
  WARNING 04: minimum elevation drop used for Conduit Cout
  
  ****************
  Analysis Options
  ****************
  Flow Units ............... CMS
  Process Models:
    Rainfall/Runoff ........ YES
    RDII ................... NO
    Snowmelt ............... NO
    Groundwater ............ NO
    Flow Routing ........... YES
    Ponding Allowed ........ NO
    Water Quality .......... NO
  Infiltration Method ...... HORTON
  Flow Routing Method ...... DYNWAVE
  Surcharge Method ......... EXTRAN
  Starting Date ............ 01/08/2014 08:00:00
  Ending Date .............. 01/08/2014 09:40:00
  Antecedent Dry Days ...... 0.0
  Report Time Step ......... 00:10:00
  Wet Time Step ............ 00:05:00
  Dry Time Step ............ 01:00:00
  Routing Time Step ........ 300.00 sec
  Variable Time Step ....... YES
  Maximum Trials ........... 8
  Number of Threads ........ 1
  Head Tolerance ........... 0.001524 m
  
  
  *********************
  Rainfall File Summary
  *********************
  Station    First        Last         Recording   Periods    Periods    Periods
  ID         Date         Date         Frequency  w/Precip    Missing    Malfunc.
  -------------------------------------------------------------------------------
  215        01/08/2014   01/08/2014      10 min        11          0          0

  
  
  **************************        Volume         Depth
  Runoff Quantity Continuity     hectare-m            mm
  **************************     ---------       -------
  Total Precipitation ......       309.831      3098.436
  Evaporation Loss .........         0.000         0.000
  Infiltration Loss ........         0.000         0.000
  Surface Runoff ...........       296.241      2962.533
  Final Storage ............        15.355       153.551
  Continuity Error (%) .....        -0.570
  
  
  **************************        Volume        Volume
  Flow Routing Continuity        hectare-m      10^6 ltr
  **************************     ---------     ---------
  Dry Weather Inflow .......         0.000         0.000
  Wet Weather Inflow .......       290.983      2909.857
  Groundwater Inflow .......         0.000         0.000
  RDII Inflow ..............         0.000         0.000
  External Inflow ..........         0.000         0.000
  External Outflow .........         4.309        43.094
  Flooding Loss ............       283.837      2838.398
  Evaporation Loss .........         0.000         0.000
  Exfiltration Loss ........         0.000         0.000
  Initial Stored Volume ....         0.046         0.463
  Final Stored Volume ......         1.883        18.831
  Continuity Error (%) .....         0.344
  
  
  *************************
  Highest Continuity Errors
  *************************
  Node J30 (9.22%)
  Node J3 (8.44%)
  Node J17 (6.83%)
  Node J24 (3.61%)
  Node J18 (3.00%)
  
  
  ***************************
  Time-Step Critical Elements
  ***************************
  Link Cout (99.51%)
  
  
  ********************************
  Highest Flow Instability Indexes
  ********************************
  All links are stable.
  
  
  *********************************
  Most Frequent Nonconverging Nodes
  *********************************
  Convergence obtained at all time steps.
  
  
  *************************
  Routing Time Step Summary
  *************************
  Minimum Time Step           :     4.92 sec
  Average Time Step           :    14.60 sec
  Maximum Time Step           :   300.00 sec
  % of Time in Steady State   :     0.00
  Average Iterations per Step :     2.01
  % of Steps Not Converging   :     0.00
  Time Step Frequencies       :
     300.000 - 83.462 sec      :     0.24 %
     83.462 - 23.220 sec      :     0.00 %
     23.220 -  6.460 sec      :    99.27 %
      6.460 -  1.797 sec      :     0.49 %
      1.797 -  0.500 sec      :     0.00 %
  
  
  ***************************
  Subcatchment Runoff Summary
  ***************************
  
  ------------------------------------------------------------------------------------------------------------------------------
                            Total      Total      Total      Total     Imperv       Perv      Total       Total     Peak  Runoff
                           Precip      Runon       Evap      Infil     Runoff     Runoff     Runoff      Runoff   Runoff   Coeff
  Subcatchment                 mm         mm         mm         mm         mm         mm         mm    10^6 ltr      CMS
  ------------------------------------------------------------------------------------------------------------------------------
  S1                      3098.44       0.00       0.00       0.00      30.67    3067.76    3098.44      781.62   242.44   1.000
  S2                      3098.44       0.00       0.00       0.00      28.20    3071.79    3099.99       24.09     7.47   1.001
  S3                      3098.44       0.00       0.00       0.00      28.19    3070.24    3098.43        6.41     1.99   1.000
  S4                      3098.44       0.00       0.00       0.00      28.20    3070.24    3098.44        6.35     1.97   1.000
  S5                      3098.44       0.00       0.00       0.00      28.19    3070.24    3098.43        9.26     2.87   1.000
  S6                      3098.44       0.00       0.00       0.00      28.20    3070.24    3098.44       25.53     7.92   1.000
  S7                      3098.44       0.00       0.00       0.00      28.19    3070.24    3098.44        4.80     1.49   1.000
  S8                      3098.44       0.00       0.00       0.00      28.19    3070.24    3098.43       15.09     4.68   1.000
  S9                      3098.44       0.00       0.00       0.00      28.19    3070.24    3098.44       18.65     5.79   1.000
  S10                     3098.44       0.00       0.00       0.00       0.00    3070.24    3070.24        4.33     1.34   0.991
  S11                     3098.44       0.00       0.00       0.00      28.20    3037.11    3065.30       44.85    14.04   0.989
  S12                     3098.44       0.00       0.00       0.00      28.19    3070.24    3098.43       26.89     8.34   1.000
  S13                     3098.44       0.00       0.00       0.00       0.00    3070.24    3070.24       25.91     8.04   0.991
  S14                     3098.44       0.00       0.00       0.00      26.03    3072.41    3098.43       24.88     7.72   1.000
  S15                     3098.44       0.00       0.00       0.00      26.03    3072.41    3098.43       23.24     7.21   1.000
  S16                     3098.44       0.00       0.00       0.00      23.86    3072.82    3096.68       54.69    16.97   0.999
  S17                     3098.44       0.00       0.00       0.00      23.86    2975.79    2999.65      102.14    32.29   0.968
  S18                     3098.44       0.00       0.00       0.00      23.86    3074.62    3098.48        4.00     1.24   1.000
  S19                     3098.44       0.00       0.00       0.00      23.86       0.00      23.86        0.06     0.02   0.008
  S20                     3098.44       0.00       0.00       0.00      23.86    3074.51    3098.36        3.16     0.98   1.000
  S21                     3098.44       0.00       0.00       0.00      23.86    3060.27    3084.13       51.14    15.93   0.995
  S22                     3098.44       0.00       0.00       0.00      23.86    3074.53    3098.39        1.02     0.32   1.000
  S23                     3098.44       0.00       0.00       0.00      23.86    3074.58    3098.44        1.21     0.37   1.000
  S24                     3098.44       0.00       0.00       0.00      23.86    3074.58    3098.44        1.52     0.47   1.000
  S25                     3098.44       0.00       0.00       0.00      23.86    3074.58    3098.43        1.83     0.57   1.000
  S26                     3098.44       0.00       0.00       0.00      23.86    3074.58    3098.44        2.14     0.66   1.000
  S27                     3098.44       0.00       0.00       0.00      23.86    3075.21    3099.06       25.75     7.99   1.000
  S28                     3098.44       0.00       0.00       0.00      23.86    3062.74    3086.60       27.41     8.53   0.996
  S29                     3098.44       0.00       0.00       0.00      23.86    3074.48    3098.34        2.85     0.88   1.000
  S30                     3098.44       0.00       0.00       0.00      23.86    2944.24    2968.10      189.07    59.90   0.958
  S31                     3098.44       0.00       0.00       0.00      24.79    3073.65    3098.44       41.98    13.02   1.000
  S32                     3098.44       0.00       0.00       0.00      24.79    3073.65    3098.44       12.92     4.01   1.000
  S33                     3098.44       0.00       0.00       0.00      29.12    3069.31    3098.43        9.64     2.99   1.000
  S34                     3098.44       0.00       0.00       0.00      29.12    3069.31    3098.44       10.19     3.16   1.000
  S35                     3098.44       0.00       0.00       0.00      28.19    3070.24    3098.43       12.46     3.86   1.000
  S36                     3098.44       0.00       0.00       0.00      28.20    3070.24    3098.44        5.11     1.59   1.000
  S37                     3098.44       0.00       0.00       0.00      28.19    3070.24    3098.43       11.15     3.46   1.000
  S38                     3098.44       0.00       0.00       0.00      28.19    3070.24    3098.44        0.50     0.15   1.000
  S39                     3098.44       0.00       0.00       0.00      28.20    3070.24    3098.44       12.70     3.94   1.000
  S40                     3098.44       0.00       0.00       0.00      28.20    3070.24    3098.44        4.37     1.36   1.000
  S41                     3098.44       0.00       0.00       0.00      28.20    3070.24    3098.44        7.03     2.18   1.000
  S42                     3098.44       0.00       0.00       0.00      28.19    3070.24    3098.44        9.79     3.04   1.000
  S43                     3098.44       0.00       0.00       0.00      28.19    3070.24    3098.44       22.31     6.92   1.000
  S44                     3098.44       0.00       0.00       0.00      28.20    3070.24    3098.44       16.17     5.02   1.000
  S45                     3098.44       0.00       0.00       0.00      28.19    3070.24    3098.43        1.64     0.51   1.000
  S46                     3098.44       0.00       0.00       0.00      28.19    3070.24    3098.43       15.00     4.65   1.000
  S47                     3098.44       0.00       0.00       0.00      28.20    3070.24    3098.44       30.30     9.40   1.000
  S48                     3098.44       0.00       0.00       0.00      28.20    3070.24    3098.44       35.01    10.86   1.000
  S49                     3098.44       0.00       0.00       0.00      28.19    3070.24    3098.43       21.29     6.60   1.000
  S50                     3098.44       0.00       0.00       0.00      28.20    3070.24    3098.44       17.54     5.44   1.000
  S51                     3098.44       0.00       0.00       0.00      28.19    3070.24    3098.43       10.35     3.21   1.000
  S52                     3098.44       0.00       0.00       0.00      28.19    3070.24    3098.44       27.42     8.51   1.000
  S53                     3098.44       0.00       0.00       0.00      28.20    3059.40    3087.60       37.61    11.70   0.997
  S54                     3098.44       0.00       0.00       0.00      28.20    3071.83    3100.03       14.17     4.39   1.001
  S55                     3098.44       0.00       0.00       0.00      28.19    3070.24    3098.44        1.18     0.37   1.000
  S56                     3098.44       0.00       0.00       0.00      28.20    3735.68    3763.88        1.43     1.21   1.215
  S57                     3098.44       0.00       0.00       0.00      28.19    3070.24    3098.43       16.02     4.97   1.000
  S58                     3098.44       0.00       0.00       0.00      28.19    3070.24    3098.43       20.57     6.38   1.000
  S59                     3098.44       0.00       0.00       0.00      28.19    3070.24    3098.44       19.99     6.20   1.000
  S60                     3098.44       0.00       0.00       0.00      23.86    3075.96    3099.82       12.18     3.78   1.000
  S61                     3098.44       0.00       0.00       0.00      23.86       0.00      23.86        0.08     0.02   0.008
  S62                     3098.44       0.00       0.00       0.00      23.86    2921.47    2945.33      157.84    50.08   0.951
  S63                     3098.44       0.00       0.00       0.00      23.86    3074.58    3098.44       29.13     9.03   1.000
  S64                     3098.44       0.00       0.00       0.00      23.86    3074.58    3098.44       78.86    24.46   1.000
  S65                     3098.44       0.00       0.00       0.00      23.86    3074.58    3098.43       12.58     3.90   1.000
  S66                     3098.44       0.00       0.00       0.00      23.86    3074.58    3098.44       20.29     6.30   1.000
  S67                     3098.44       0.00       0.00       0.00      23.86    3074.58    3098.44       37.93    11.76   1.000
  S68                     3098.44       0.00       0.00       0.00      23.86    3074.58    3098.44       44.46    13.79   1.000
  S69                     3098.44       0.00       0.00       0.00      23.86       0.00      23.86        0.59     0.18   0.008
  S70                     3098.44       0.00       0.00       0.00      23.86    3059.11    3082.97       80.68    25.14   0.995
  S71                     3098.44       0.00       0.00       0.00      28.20    3070.24    3098.44       45.58    14.14   1.000
  S72                     3098.44       0.00       0.00       0.00      23.86    3074.16    3098.02       15.37     4.77   1.000
  S73                     3098.44       0.00       0.00       0.00      23.86    3074.58    3098.44       64.94    20.14   1.000
  S74                     3098.44       0.00       0.00       0.00      23.86       0.00      23.86        0.16     0.05   0.008
  S75                     3098.44       0.00       0.00       0.00      23.86    3074.58    3098.44        2.08     0.64   1.000
  S76                     3098.44       0.00       0.00       0.00      23.86    3074.58    3098.44       40.93    12.70   1.000
  S77                     3098.44       0.00       0.00       0.00      23.86    3074.58    3098.44       33.12    10.27   1.000
  S78                     3098.44       0.00       0.00       0.00      23.86    3074.58    3098.43       24.01     7.45   1.000
  S79                     3098.44       0.00       0.00       0.00      28.20    3070.24    3098.44       21.04     6.53   1.000
  S80                     3098.44       0.00       0.00       0.00      23.86    3075.16    3099.02        8.55     2.65   1.000
  S81                     3098.44       0.00       0.00       0.00      23.86    3074.58    3098.43       35.04    10.87   1.000
  S82                     3098.44       0.00       0.00       0.00      23.86    3074.58    3098.44       34.21    10.61   1.000
  S83                     3098.44       0.00       0.00       0.00      23.86    3074.58    3098.44       22.00     6.82   1.000
  S84                     3098.44       0.00       0.00       0.00      28.19    3070.24    3098.44       14.38     4.46   1.000
  S85                     3098.44       0.00       0.00       0.00      28.20    3064.25    3092.45       38.22    11.88   0.998
  S86                     3098.44       0.00       0.00       0.00       0.00    3070.24    3070.24       35.52    11.02   0.991
  S87                     3098.44       0.00       0.00       0.00      28.19    3070.24    3098.44       38.48    11.94   1.000
  S88                     3098.44       0.00       0.00       0.00      28.19    3070.24    3098.44        6.94     2.15   1.000
  S89                     3098.44       0.00       0.00       0.00      28.20    3070.24    3098.44       31.33     9.72   1.000
  S90                     3098.44       0.00       0.00       0.00       0.00    3070.24    3070.24       15.07     4.68   0.991
  S91                     3098.44       0.00       0.00       0.00      28.20    3070.24    3098.44        5.11     1.59   1.000
  
  
  ******************
  Node Depth Summary
  ******************
  
  ---------------------------------------------------------------------------------
                                 Average  Maximum  Maximum  Time of Max    Reported
                                   Depth    Depth      HGL   Occurrence   Max Depth
  Node                 Type       Meters   Meters   Meters  days hr:min      Meters
  ---------------------------------------------------------------------------------
  J7                   JUNCTION     2.49     2.50     2.50     0  00:05        2.50
  J13                  JUNCTION     2.49     2.50     2.50     0  00:05        2.50
  J19                  JUNCTION     2.49     2.50     2.50     0  00:05        2.50
  J25                  JUNCTION     2.49     2.50     2.50     0  00:05        2.50
  J1                   JUNCTION     2.49     2.50     2.50     0  00:05        2.50
  J2                   JUNCTION     2.49     2.50     2.50     0  00:05        2.50
  J3                   JUNCTION     2.49     2.50     2.50     0  00:05        2.50
  J4                   JUNCTION     2.49     2.50     2.50     0  00:05        2.50
  J5                   JUNCTION     2.49     2.50     2.50     0  00:05        2.50
  J6                   JUNCTION     2.49     2.50     2.50     0  00:05        2.50
  J8                   JUNCTION     2.49     2.50     2.50     0  00:05        2.50
  J9                   JUNCTION     2.49     2.50     2.50     0  00:05        2.50
  J10                  JUNCTION     2.49     2.50     2.50     0  00:05        2.50
  J11                  JUNCTION     2.49     2.50     2.50     0  00:05        2.50
  J12                  JUNCTION     2.49     2.50     2.50     0  00:05        2.50
  J14                  JUNCTION     2.49     2.50     2.50     0  00:05        2.50
  J15                  JUNCTION     2.49     2.50     2.50     0  00:05        2.50
  J16                  JUNCTION     2.49     2.50     2.50     0  00:05        2.50
  J17                  JUNCTION     2.49     2.50     2.50     0  00:05        2.50
  J18                  JUNCTION     2.49     2.50     2.50     0  00:05        2.50
  J20                  JUNCTION     2.49     2.50     2.50     0  00:05        2.50
  J21                  JUNCTION     2.49     2.50     2.50     0  00:05        2.50
  J22                  JUNCTION     2.49     2.50     2.50     0  00:05        2.50
  J23                  JUNCTION     2.49     2.50     2.50     0  00:05        2.50
  J24                  JUNCTION     2.49     2.50     2.50     0  00:05        2.50
  J26                  JUNCTION     2.49     2.50     2.50     0  00:05        2.50
  J27                  JUNCTION     2.49     2.50     2.50     0  00:05        2.50
  J29                  JUNCTION     2.49     2.50     2.50     0  00:05        2.50
  J30                  JUNCTION     2.49     2.50     2.50     0  00:05        2.50
  J31                  JUNCTION     2.49     2.50     2.50     0  00:05        2.50
  J33                  JUNCTION     2.49     2.50     2.50     0  00:05        2.50
  J32                  JUNCTION     2.49     2.50     2.50     0  00:05        2.50
  J28                  JUNCTION     2.49     2.50     2.50     0  00:05        2.50
  OF                   OUTFALL      1.37     1.41     1.41     0  00:05        1.37
  
  
  *******************
  Node Inflow Summary
  *******************
  
  -------------------------------------------------------------------------------------------------
                                  Maximum  Maximum                  Lateral       Total        Flow
                                  Lateral    Total  Time of Max      Inflow      Inflow     Balance
                                   Inflow   Inflow   Occurrence      Volume      Volume       Error
  Node                 Type           CMS      CMS  days hr:min    10^6 ltr    10^6 ltr     Percent
  -------------------------------------------------------------------------------------------------
  J7                   JUNCTION    66.008   66.008     0  01:20         205         205       0.378
  J13                  JUNCTION     5.483    5.483     0  01:20        17.4        17.4       1.076
  J19                  JUNCTION   259.843  259.843     0  01:20         823         823       1.045
  J25                  JUNCTION    32.286   32.449     0  01:20         100         103       0.676
  J1                   JUNCTION    21.811   21.811     0  01:20        69.1        69.1       1.065
  J2                   JUNCTION    16.386   16.468     0  01:15        51.9        52.9       0.935
  J3                   JUNCTION     1.574    9.760     0  00:05        2.57         8.3       9.213
  J4                   JUNCTION    47.448   47.622     0  01:15         150         153       0.872
  J5                   JUNCTION    39.231   39.292     0  01:15         124         125       0.824
  J6                   JUNCTION    17.165   17.165     0  01:20        54.4        54.4       1.031
  J8                   JUNCTION    26.410   26.410     0  01:20        83.7        83.7       1.121
  J9                   JUNCTION    11.878   11.999     0  01:20        37.6        38.5       0.821
  J10                  JUNCTION    17.722   17.722     0  01:15        56.1        56.1       0.783
  J11                  JUNCTION    19.040   19.187     0  01:15        60.3        61.9       1.000
  J12                  JUNCTION    20.144   20.297     0  01:15        63.8        65.5       1.056
  J14                  JUNCTION    17.069   17.069     0  01:20        54.1        54.1       1.128
  J15                  JUNCTION    24.428   24.428     0  01:20        77.3        77.3       0.934
  J16                  JUNCTION    14.137   14.397     0  01:15        44.8        48.6       1.058
  J17                  JUNCTION     0.184    4.840     0  00:05       0.583        5.09       7.330
  J18                  JUNCTION     0.644    1.526     0  00:05        2.04        3.39       3.091
  J20                  JUNCTION    47.730   47.730     0  01:20         151         151       1.035
  J21                  JUNCTION    15.755   15.755     0  01:20        49.9        49.9       1.128
  J22                  JUNCTION    32.349   32.349     0  01:20         102         102       0.845
  J23                  JUNCTION    16.972   17.051     0  01:20        53.7        54.8       0.948
  J24                  JUNCTION     2.238    5.793     0  00:05        7.09        9.52       3.747
  J26                  JUNCTION    13.916   13.916     0  01:20        44.1        44.1       1.128
  J27                  JUNCTION    12.206   12.368     0  01:15        38.7        40.8       1.141
  J29                  JUNCTION    20.019   20.191     0  01:15        63.4        65.9       1.109
  J30                  JUNCTION     0.000    6.561     0  00:05           0         5.1      10.152
  J31                  JUNCTION    59.902   59.984     0  01:20         185         187       0.404
  J33                  JUNCTION    19.697   19.697     0  01:20        62.4        62.4       1.124
  J32                  JUNCTION     8.986    8.986     0  01:20        28.5        28.5       0.911
  J28                  JUNCTION    14.368   14.541     0  01:15        45.5          48       1.011
  OF                   OUTFALL      0.000    7.967     0  00:05           0        43.1       0.000
  
  
  **********************
  Node Surcharge Summary
  **********************
  
  Surcharging occurs when water rises above the top of the highest conduit.
  ---------------------------------------------------------------------
                                               Max. Height   Min. Depth
                                   Hours       Above Crown    Below Rim
  Node                 Type      Surcharged         Meters       Meters
  ---------------------------------------------------------------------
  J7                   JUNCTION        1.67          0.850        0.000
  J13                  JUNCTION        1.67          0.850        0.000
  J19                  JUNCTION        1.67          0.850        0.000
  J25                  JUNCTION        1.67          0.850        0.000
  J1                   JUNCTION        1.67          0.850        0.000
  J2                   JUNCTION        1.67          0.850        0.000
  J3                   JUNCTION        1.67          0.850        0.000
  J4                   JUNCTION        1.67          0.850        0.000
  J5                   JUNCTION        1.67          0.850        0.000
  J6                   JUNCTION        1.67          0.850        0.000
  J8                   JUNCTION        1.67          0.850        0.000
  J9                   JUNCTION        1.67          0.850        0.000
  J10                  JUNCTION        1.67          0.850        0.000
  J11                  JUNCTION        1.67          0.850        0.000
  J12                  JUNCTION        1.67          0.850        0.000
  J14                  JUNCTION        1.67          0.850        0.000
  J15                  JUNCTION        1.67          0.850        0.000
  J16                  JUNCTION        1.67          0.850        0.000
  J17                  JUNCTION        1.67          0.850        0.000
  J18                  JUNCTION        1.67          0.850        0.000
  J20                  JUNCTION        1.67          0.850        0.000
  J21                  JUNCTION        1.67          0.850        0.000
  J22                  JUNCTION        1.67          0.850        0.000
  J23                  JUNCTION        1.67          0.850        0.000
  J24                  JUNCTION        1.67          0.850        0.000
  J26                  JUNCTION        1.67          0.850        0.000
  J27                  JUNCTION        1.67          0.850        0.000
  J29                  JUNCTION        1.67          0.850        0.000
  J30                  JUNCTION        1.67          0.850        0.000
  J31                  JUNCTION        1.67          0.850        0.000
  J33                  JUNCTION        1.67          0.850        0.000
  J32                  JUNCTION        1.67          0.850        0.000
  J28                  JUNCTION        1.67          0.850        0.000
  
  
  *********************
  Node Flooding Summary
  *********************
  
  Flooding refers to all water that overflows a node, whether it ponds or not.
  --------------------------------------------------------------------------
                                                             Total   Maximum
                                 Maximum   Time of Max       Flood    Ponded
                        Hours       Rate    Occurrence      Volume     Depth
  Node                 Flooded       CMS   days hr:min    10^6 ltr    Meters
  --------------------------------------------------------------------------
  J7                      1.67    65.877      0  01:20     202.469     0.000
  J13                     1.67     5.483      0  01:20      17.367     0.000
  J19                     1.67   252.491      0  01:20     779.990     0.000
  J25                     1.67    32.427      0  01:20     102.730     0.000
  J1                      1.67    21.735      0  01:20      68.117     0.000
  J2                      1.67    16.302      0  01:20      50.511     0.000
  J3                      1.67     9.180      0  00:05       8.298     0.000
  J4                      1.67    47.443      0  01:20     148.881     0.000
  J5                      1.67    38.973      0  01:20     119.615     0.000
  J6                      1.67    17.031      0  01:20      52.928     0.000
  J8                      1.67    26.369      0  01:20      83.364     0.000
  J9                      1.67    11.917      0  01:20      37.167     0.000
  J10                     1.67    17.444      0  01:20      52.434     0.000
  J11                     1.67    19.029      0  01:20      59.770     0.000
  J12                     1.67    20.209      0  01:15      64.120     0.000
  J14                     1.67    17.069      0  01:20      54.074     0.000
  J15                     1.67    24.306      0  01:20      75.657     0.000
  J16                     1.67    14.305      0  01:15      46.604     0.000
  J17                     1.67     4.676      0  00:05       5.089     0.000
  J18                     1.67     1.375      0  00:05       2.960     0.000
  J20                     1.67    47.726      0  01:20     150.772     0.000
  J21                     1.67    15.755      0  01:20      49.912     0.000
  J22                     1.67    32.185      0  01:20      99.730     0.000
  J23                     1.67    16.900      0  01:20      52.837     0.000
  J24                     1.67     4.439      0  00:05       8.247     0.000
  J26                     1.67    13.916      0  01:20      44.087     0.000
  J27                     1.67    12.282      0  01:15      39.539     0.000
  J29                     1.67    20.024      0  01:15      63.606     0.000
  J30                     1.67     6.326      0  00:05       5.096     0.000
  J31                     1.67    59.852      0  01:20     184.840     0.000
  J33                     1.67    19.697      0  01:20      62.414     0.000
  J32                     1.67     8.906      0  01:20      27.318     0.000
  J28                     1.67    14.449      0  01:15      46.207     0.000
  
  
  ***********************
  Outfall Loading Summary
  ***********************
  
  -----------------------------------------------------------
                         Flow       Avg       Max       Total
                         Freq      Flow      Flow      Volume
  Outfall Node           Pcnt       CMS       CMS    10^6 ltr
  -----------------------------------------------------------
  OF                   100.00     7.336     7.967      43.094
  -----------------------------------------------------------
  System               100.00     7.336     7.967      43.094
  
  
  ********************
  Link Flow Summary
  ********************
  
  -----------------------------------------------------------------------------
                                 Maximum  Time of Max   Maximum    Max/    Max/
                                  |Flow|   Occurrence   |Veloc|    Full    Full
  Link                 Type          CMS  days hr:min     m/sec    Flow   Depth
  -----------------------------------------------------------------------------
  P1                   PUMP        0.000     0  00:00                          
  C23                  CONDUIT     0.068     0  00:05      0.03    0.59    1.00
  C24                  CONDUIT     1.020     0  00:05      0.48    8.83    1.00
  C25                  CONDUIT     0.081     0  00:05      0.04    0.65    1.00
  C26                  CONDUIT     0.438     0  00:05      0.20    3.43    1.00
  C27                  CONDUIT     0.076     0  00:05      0.04    0.63    1.00
  C28                  CONDUIT     1.094     0  00:05      0.51    7.54    1.00
  C29                  CONDUIT     0.589     0  00:05      0.28    4.15    1.00
  C30                  CONDUIT     1.104     0  00:05      0.52    9.70    1.00
  C31                  CONDUIT     0.277     0  00:05      0.13    2.42    1.00
  C32                  CONDUIT     2.393     0  00:05      1.12   15.47    1.00
  C33                  CONDUIT     6.066     0  00:05      2.84   35.49    1.00
  C34                  CONDUIT     1.102     0  00:05      0.52    8.77    1.00
  C35                  CONDUIT     0.174     0  00:05      0.08    1.85    1.00
  C36                  CONDUIT     0.529     0  00:05      0.25    4.99    1.00
  C37                  CONDUIT     0.911     0  00:05      0.43    6.26    1.00
  C38                  CONDUIT     0.917     0  00:05      0.43    6.39    1.00
  C39                  CONDUIT     0.967     0  00:05      0.45    6.13    1.00
  C40                  CONDUIT     0.000     0  00:00      0.00    0.00    1.00
  C41                  CONDUIT     0.000     0  00:00      0.00    0.00    1.00
  C43                  CONDUIT     0.000     0  00:00      0.00    0.00    1.00
  C44                  CONDUIT     1.104     0  00:05      0.52    9.42    1.00
  C45                  CONDUIT     2.692     0  00:05      1.26   23.10    1.00
  C46                  CONDUIT     2.610     0  00:05      1.22   21.63    1.00
  C48                  CONDUIT     0.000     0  00:05      0.00    0.00    1.00
  C42                  CONDUIT     1.258     0  00:05      0.59    9.98    1.00
  C50                  CONDUIT     0.842     0  00:05      0.39    8.14    1.00
  C49                  CONDUIT     0.479     0  00:05      0.22    4.18    1.00
  C01                  CONDUIT     0.000     0  00:00      0.00    0.00    1.00
  C02                  CONDUIT     0.000     0  00:00      0.00    0.00    1.00
  C03                  CONDUIT     0.781     0  00:05      0.37    6.24    1.00
  C04                  CONDUIT     1.075     0  00:05      0.50    8.46    1.00
  C05                  CONDUIT     1.061     0  00:05      0.50    8.46    1.00
  C06                  CONDUIT     0.000     0  00:00      0.00    0.00    1.00
  C07                  CONDUIT     0.000     0  00:00      0.00    0.00    1.00
  C08                  CONDUIT     0.000     0  00:00      0.00    0.00    1.00
  C09                  CONDUIT     1.003     0  00:05      0.47    8.78    1.00
  C10                  CONDUIT     1.155     0  00:05      0.54    9.21    1.00
  C11                  CONDUIT     0.000     0  00:00      0.00    0.00    1.00
  C12                  CONDUIT     0.319     0  00:05      0.15    2.75    1.00
  C13                  CONDUIT     0.000     0  00:05      0.00    0.00    1.00
  C14                  CONDUIT     3.060     0  00:05      1.43   24.31    1.00
  C15                  CONDUIT     0.127     0  00:05      0.06    1.01    1.00
  C16                  CONDUIT     4.767     0  00:05      2.23   41.85    1.00
  C17                  CONDUIT     1.249     0  00:05      0.58   11.02    1.00
  C18                  CONDUIT     0.000     0  00:00      0.00    0.00    1.00
  C19                  CONDUIT     0.000     0  00:05      0.00    0.00    1.00
  C20                  CONDUIT     1.231     0  00:05      0.58   10.96    1.00
  C21                  CONDUIT     0.000     0  00:05      0.00    0.00    1.00
  C22                  CONDUIT     0.311     0  00:05      0.15    2.45    1.00
  C47                  CONDUIT     1.218     0  00:05      0.57   12.52    1.00
  Cout                 CONDUIT     7.967     0  00:05      3.85   62.91    0.93
  
  
  ***************************
  Flow Classification Summary
  ***************************
  
  -------------------------------------------------------------------------------------
                      Adjusted    ---------- Fraction of Time in Flow Class ---------- 
                       /Actual         Up    Down  Sub   Sup   Up    Down  Norm  Inlet 
  Conduit               Length    Dry  Dry   Dry   Crit  Crit  Crit  Crit  Ltd   Ctrl  
  -------------------------------------------------------------------------------------
  C23                     1.00   0.00  0.00  0.00  1.00  0.00  0.00  0.00  0.00  0.00
  C24                     1.00   0.00  0.00  0.00  1.00  0.00  0.00  0.00  0.00  0.00
  C25                     1.00   0.00  0.00  0.00  1.00  0.00  0.00  0.00  0.00  0.00
  C26                     1.00   0.00  0.00  0.00  1.00  0.00  0.00  0.00  0.00  0.00
  C27                     1.00   0.00  0.00  0.00  1.00  0.00  0.00  0.00  0.00  0.00
  C28                     1.00   0.00  0.00  0.00  1.00  0.00  0.00  0.00  0.00  0.00
  C29                     1.00   0.00  0.00  0.00  1.00  0.00  0.00  0.00  0.00  0.00
  C30                     1.00   0.00  0.00  0.00  1.00  0.00  0.00  0.00  0.00  0.00
  C31                     1.00   0.00  0.00  0.00  1.00  0.00  0.00  0.00  0.00  0.00
  C32                     1.00   0.00  0.00  0.00  1.00  0.00  0.00  0.00  0.00  0.00
  C33                     1.00   0.00  0.00  0.00  1.00  0.00  0.00  0.00  0.00  0.00
  C34                     1.00   0.00  0.00  0.00  1.00  0.00  0.00  0.00  0.00  0.00
  C35                     1.00   0.00  0.00  0.00  1.00  0.00  0.00  0.00  0.00  0.00
  C36                     1.00   0.00  0.00  0.00  1.00  0.00  0.00  0.00  0.00  0.00
  C37                     1.00   0.00  0.00  0.00  1.00  0.00  0.00  0.00  0.00  0.00
  C38                     1.00   0.00  0.00  0.00  1.00  0.00  0.00  0.00  0.00  0.00
  C39                     1.00   0.00  0.00  0.00  1.00  0.00  0.00  0.00  0.00  0.00
  C40                     1.00   0.00  0.00  0.00  1.00  0.00  0.00  0.00  0.00  0.00
  C41                     1.00   0.00  0.00  0.00  1.00  0.00  0.00  0.00  0.00  0.00
  C43                     1.00   0.00  0.00  0.00  1.00  0.00  0.00  0.00  0.00  0.00
  C44                     1.00   0.00  0.00  0.00  1.00  0.00  0.00  0.00  0.00  0.00
  C45                     1.00   0.00  0.00  0.00  1.00  0.00  0.00  0.00  0.00  0.00
  C46                     1.00   0.00  0.00  0.00  1.00  0.00  0.00  0.00  0.00  0.00
  C48                     1.00   0.00  0.00  0.00  1.00  0.00  0.00  0.00  0.00  0.00
  C42                     1.00   0.00  0.00  0.00  1.00  0.00  0.00  0.00  0.00  0.00
  C50                     1.00   0.00  0.00  0.00  1.00  0.00  0.00  0.00  0.00  0.00
  C49                     1.00   0.00  0.00  0.00  1.00  0.00  0.00  0.00  0.00  0.00
  C01                     1.00   0.00  0.00  0.00  1.00  0.00  0.00  0.00  0.00  0.00
  C02                     1.00   0.00  0.00  0.00  1.00  0.00  0.00  0.00  0.00  0.00
  C03                     1.00   0.00  0.00  0.00  1.00  0.00  0.00  0.00  0.00  0.00
  C04                     1.00   0.00  0.00  0.00  1.00  0.00  0.00  0.00  0.00  0.00
  C05                     1.00   0.00  0.00  0.00  1.00  0.00  0.00  0.00  0.00  0.00
  C06                     1.00   0.00  0.00  0.00  1.00  0.00  0.00  0.00  0.00  0.00
  C07                     1.00   0.00  0.00  0.00  1.00  0.00  0.00  0.00  0.00  0.00
  C08                     1.00   0.00  0.00  0.00  1.00  0.00  0.00  0.00  0.00  0.00
  C09                     1.00   0.00  0.00  0.00  1.00  0.00  0.00  0.00  0.00  0.00
  C10                     1.00   0.00  0.00  0.00  1.00  0.00  0.00  0.00  0.00  0.00
  C11                     1.00   0.00  0.00  0.00  1.00  0.00  0.00  0.00  0.00  0.00
  C12                     1.00   0.00  0.00  0.00  1.00  0.00  0.00  0.00  0.00  0.00
  C13                     1.00   0.00  0.00  0.00  1.00  0.00  0.00  0.00  0.00  0.00
  C14                     1.00   0.00  0.00  0.00  1.00  0.00  0.00  0.00  0.00  0.00
  C15                     1.00   0.00  0.00  0.00  1.00  0.00  0.00  0.00  0.00  0.00
  C16                     1.00   0.00  0.00  0.00  1.00  0.00  0.00  0.00  0.00  0.00
  C17                     1.00   0.00  0.00  0.00  1.00  0.00  0.00  0.00  0.00  0.00
  C18                     1.00   0.00  0.00  0.00  1.00  0.00  0.00  0.00  0.00  0.00
  C19                     1.00   0.00  0.00  0.00  1.00  0.00  0.00  0.00  0.00  0.00
  C20                     1.00   0.00  0.00  0.00  1.00  0.00  0.00  0.00  0.00  0.00
  C21                     1.00   0.00  0.00  0.00  1.00  0.00  0.00  0.00  0.00  0.00
  C22                     1.00   0.00  0.00  0.00  1.00  0.00  0.00  0.00  0.00  0.00
  C47                     1.00   0.00  0.00  0.00  1.00  0.00  0.00  0.00  0.00  0.00
  Cout                    1.00   0.00  0.00  0.00  1.00  0.00  0.00  0.00  0.00  0.00
  
  
  *************************
  Conduit Surcharge Summary
  *************************
  
  ----------------------------------------------------------------------------
                                                           Hours        Hours 
                         --------- Hours Full --------   Above Full   Capacity
  Conduit                Both Ends  Upstream  Dnstream   Normal Flow   Limited
  ----------------------------------------------------------------------------
  C23                         1.67      1.67      1.67      0.01         0.01
  C24                         1.67      1.67      1.67      0.93         0.01
  C25                         1.67      1.67      1.67      0.01         0.01
  C26                         1.67      1.67      1.67      0.69         0.01
  C27                         1.67      1.67      1.67      0.01         0.01
  C28                         1.67      1.67      1.67      0.74         0.01
  C29                         1.67      1.67      1.67      0.67         0.01
  C30                         1.67      1.67      1.67      0.95         0.01
  C31                         1.67      1.67      1.67      0.65         0.01
  C32                         1.67      1.67      1.67      0.75         0.01
  C33                         1.67      1.67      1.67      0.71         0.01
  C34                         1.67      1.67      1.67      0.86         0.01
  C35                         1.67      1.67      1.67      0.62         0.01
  C36                         1.67      1.67      1.67      0.92         0.01
  C37                         1.67      1.67      1.67      0.72         0.01
  C38                         1.67      1.67      1.67      0.73         0.01
  C39                         1.67      1.67      1.67      0.67         0.01
  C40                         1.67      1.67      1.67      0.01         0.01
  C41                         1.67      1.67      1.67      0.01         0.01
  C43                         1.67      1.67      1.67      0.01         0.01
  C44                         1.67      1.67      1.67      0.92         0.01
  C45                         1.67      1.67      1.67      0.99         0.01
  C46                         1.67      1.67      1.67      0.95         0.01
  C48                         1.67      1.67      1.67      0.01         0.01
  C42                         1.67      1.67      1.67      0.87         0.01
  C50                         1.67      1.67      1.67      1.02         0.01
  C49                         1.67      1.67      1.67      0.82         0.01
  C01                         1.67      1.67      1.67      0.01         0.01
  C02                         1.67      1.67      1.67      0.01         0.01
  C03                         1.67      1.67      1.67      0.82         0.01
  C04                         1.67      1.67      1.67      0.85         0.01
  C05                         1.67      1.67      1.67      0.86         0.01
  C06                         1.67      1.67      1.67      0.01         0.01
  C07                         1.67      1.67      1.67      0.01         0.01
  C08                         1.67      1.67      1.67      0.01         0.01
  C09                         1.67      1.67      1.67      0.94         0.01
  C10                         1.67      1.67      1.67      0.87         0.01
  C11                         1.67      1.67      1.67      0.01         0.01
  C12                         1.67      1.67      1.67      0.69         0.01
  C13                         1.67      1.67      1.67      0.01         0.01
  C14                         1.67      1.67      1.67      0.93         0.01
  C15                         1.67      1.67      1.67      0.09         0.01
  C16                         1.67      1.67      1.67      1.03         0.01
  C17                         1.67      1.67      1.67      0.97         0.01
  C18                         1.67      1.67      1.67      0.01         0.01
  C19                         1.67      1.67      1.67      0.01         0.01
  C20                         1.67      1.67      1.67      0.97         0.01
  C21                         1.67      1.67      1.67      0.01         0.01
  C22                         1.67      1.67      1.67      0.60         0.01
  C47                         1.67      1.67      1.67      1.13         0.01
  Cout                        0.01      1.67      0.01      1.67         0.01
  
  
  ***************
  Pumping Summary
  ***************
  
  ---------------------------------------------------------------------------------------------------------
                                                  Min       Avg       Max     Total     Power    % Time Off
                        Percent   Number of      Flow      Flow      Flow    Volume     Usage    Pump Curve
  Pump                 Utilized   Start-Ups       CMS       CMS       CMS  10^6 ltr     Kw-hr    Low   High
  ---------------------------------------------------------------------------------------------------------
  P1                       0.00           0      0.00      0.00      0.00     0.000      0.00    0.0    0.0
  

  Analysis begun on:  Thu Oct 31 20:14:37 2024
  Analysis ended on:  Thu Oct 31 20:14:37 2024
  Total elapsed time: < 1 sec