
  EPA STORM WATER MANAGEMENT MODEL - VERSION 5.2 (Build 5.2.4)
  PYSWMM TOOLKIT API - VERSION v1.0 (2023-11-27)
  ------------------------------------------------------------

  WARNING 04: minimum elevation drop used for Conduit C23
  WARNING 04: minimum elevation drop used for Conduit C24
  WARNING 04: minimum elevation drop used for Conduit C25
  WARNING 04: minimum elevation drop used for Conduit C26
  WARNING 04: minimum elevation drop used for Conduit C27
  WARNING 04: minimum elevation drop used for Conduit C28
  WARNING 04: minimum elevation drop used for Conduit C29
  WARNING 04: minimum elevation drop used for Conduit C30
  WARNING 04: minimum elevation drop used for Conduit C31
  WARNING 04: minimum elevation drop used for Conduit C32
  WARNING 04: minimum elevation drop used for Conduit C33
  WARNING 04: minimum elevation drop used for Conduit C34
  WARNING 04: minimum elevation drop used for Conduit C35
  WARNING 04: minimum elevation drop used for Conduit C36
  WARNING 04: minimum elevation drop used for Conduit C37
  WARNING 04: minimum elevation drop used for Conduit C38
  WARNING 04: minimum elevation drop used for Conduit C39
  WARNING 04: minimum elevation drop used for Conduit C40
  WARNING 04: minimum elevation drop used for Conduit C41
  WARNING 04: minimum elevation drop used for Conduit C43
  WARNING 04: minimum elevation drop used for Conduit C44
  WARNING 04: minimum elevation drop used for Conduit C45
  WARNING 04: minimum elevation drop used for Conduit C46
  WARNING 04: minimum elevation drop used for Conduit C48
  WARNING 04: minimum elevation drop used for Conduit C42
  WARNING 04: minimum elevation drop used for Conduit C50
  WARNING 04: minimum elevation drop used for Conduit C49
  WARNING 04: minimum elevation drop used for Conduit C01
  WARNING 04: minimum elevation drop used for Conduit C02
  WARNING 04: minimum elevation drop used for Conduit C03
  WARNING 04: minimum elevation drop used for Conduit C04
  WARNING 04: minimum elevation drop used for Conduit C05
  WARNING 04: minimum elevation drop used for Conduit C06
  WARNING 04: minimum elevation drop used for Conduit C07
  WARNING 04: minimum elevation drop used for Conduit C08
  WARNING 04: minimum elevation drop used for Conduit C09
  WARNING 04: minimum elevation drop used for Conduit C10
  WARNING 04: minimum elevation drop used for Conduit C11
  WARNING 04: minimum elevation drop used for Conduit C12
  WARNING 04: minimum elevation drop used for Conduit C13
  WARNING 04: minimum elevation drop used for Conduit C14
  WARNING 04: minimum elevation drop used for Conduit C15
  WARNING 04: minimum elevation drop used for Conduit C16
  WARNING 04: minimum elevation drop used for Conduit C17
  WARNING 04: minimum elevation drop used for Conduit C18
  WARNING 04: minimum elevation drop used for Conduit C19
  WARNING 04: minimum elevation drop used for Conduit C20
  WARNING 04: minimum elevation drop used for Conduit C21
  WARNING 04: minimum elevation drop used for Conduit C22
  WARNING 04: minimum elevation drop used for Conduit C47
  WARNING 04: minimum elevation drop used for Conduit Cout
  
  ****************
  Analysis Options
  ****************
  Flow Units ............... CMS
  Process Models:
    Rainfall/Runoff ........ YES
    RDII ................... NO
    Snowmelt ............... NO
    Groundwater ............ NO
    Flow Routing ........... YES
    Ponding Allowed ........ NO
    Water Quality .......... NO
  Infiltration Method ...... HORTON
  Flow Routing Method ...... DYNWAVE
  Surcharge Method ......... EXTRAN
  Starting Date ............ 01/09/2023 12:00:00
  Ending Date .............. 01/09/2023 12:50:00
  Antecedent Dry Days ...... 0.0
  Report Time Step ......... 00:10:00
  Wet Time Step ............ 00:05:00
  Dry Time Step ............ 01:00:00
  Routing Time Step ........ 300.00 sec
  Variable Time Step ....... YES
  Maximum Trials ........... 8
  Number of Threads ........ 1
  Head Tolerance ........... 0.001524 m
  
  
  *********************
  Rainfall File Summary
  *********************
  Station    First        Last         Recording   Periods    Periods    Periods
  ID         Date         Date         Frequency  w/Precip    Missing    Malfunc.
  -------------------------------------------------------------------------------
  254        01/09/2023   01/09/2023      10 min         6          0          0

  
  
  **************************        Volume         Depth
  Runoff Quantity Continuity     hectare-m            mm
  **************************     ---------       -------
  Total Precipitation ......       104.121      1041.252
  Evaporation Loss .........         0.000         0.000
  Infiltration Loss ........         0.000         0.000
  Surface Runoff ...........        98.585       985.893
  Final Storage ............         6.398        63.981
  Continuity Error (%) .....        -0.828
  
  
  **************************        Volume        Volume
  Flow Routing Continuity        hectare-m      10^6 ltr
  **************************     ---------     ---------
  Dry Weather Inflow .......         0.000         0.000
  Wet Weather Inflow .......        96.512       965.131
  Groundwater Inflow .......         0.000         0.000
  RDII Inflow ..............         0.000         0.000
  External Inflow ..........         0.000         0.000
  External Outflow .........         2.104        21.044
  Flooding Loss ............        92.333       923.337
  Evaporation Loss .........         0.000         0.000
  Exfiltration Loss ........         0.000         0.000
  Initial Stored Volume ....         0.046         0.463
  Final Stored Volume ......         1.883        18.831
  Continuity Error (%) .....         0.247
  
  
  *************************
  Highest Continuity Errors
  *************************
  Node J30 (10.17%)
  Node J3 (9.43%)
  Node J18 (8.56%)
  Node J24 (4.75%)
  Node J17 (3.66%)
  
  
  ***************************
  Time-Step Critical Elements
  ***************************
  Link Cout (98.98%)
  
  
  ********************************
  Highest Flow Instability Indexes
  ********************************
  Link C24 (2)
  Link C25 (2)
  Link C31 (2)
  Link C33 (2)
  Link C34 (2)
  
  
  *********************************
  Most Frequent Nonconverging Nodes
  *********************************
  Node J18 (0.51%)
  Node J24 (0.51%)
  Node OF (0.51%)
  
  
  *************************
  Routing Time Step Summary
  *************************
  Minimum Time Step           :     4.92 sec
  Average Time Step           :    15.30 sec
  Maximum Time Step           :   300.00 sec
  % of Time in Steady State   :     0.00
  Average Iterations per Step :     2.03
  % of Steps Not Converging   :     0.51
  Time Step Frequencies       :
     300.000 - 83.462 sec      :     0.51 %
     83.462 - 23.220 sec      :     0.00 %
     23.220 -  6.460 sec      :    98.46 %
      6.460 -  1.797 sec      :     1.03 %
      1.797 -  0.500 sec      :     0.00 %
  
  
  ***************************
  Subcatchment Runoff Summary
  ***************************
  
  ------------------------------------------------------------------------------------------------------------------------------
                            Total      Total      Total      Total     Imperv       Perv      Total       Total     Peak  Runoff
                           Precip      Runon       Evap      Infil     Runoff     Runoff     Runoff      Runoff   Runoff   Coeff
  Subcatchment                 mm         mm         mm         mm         mm         mm         mm    10^6 ltr      CMS
  ------------------------------------------------------------------------------------------------------------------------------
  S1                      1041.25       0.00       0.00       0.00      10.31    1030.94    1041.25      262.67   133.50   1.000
  S2                      1041.25       0.00       0.00       0.00       9.48    1031.28    1040.76        8.09     4.11   1.000
  S3                      1041.25       0.00       0.00       0.00       9.48    1031.78    1041.25        2.16     1.10   1.000
  S4                      1041.25       0.00       0.00       0.00       9.48    1031.78    1041.25        2.13     1.08   1.000
  S5                      1041.25       0.00       0.00       0.00       9.48    1031.78    1041.25        3.11     1.58   1.000
  S6                      1041.25       0.00       0.00       0.00       9.48    1031.78    1041.25        8.58     4.36   1.000
  S7                      1041.25       0.00       0.00       0.00       9.48    1031.78    1041.25        1.61     0.82   1.000
  S8                      1041.25       0.00       0.00       0.00       9.48    1031.78    1041.25        5.07     2.58   1.000
  S9                      1041.25       0.00       0.00       0.00       9.48    1031.78    1041.25        6.27     3.19   1.000
  S10                     1041.25       0.00       0.00       0.00       0.00    1031.78    1031.78        1.45     0.74   0.991
  S11                     1041.25       0.00       0.00       0.00       9.48    1001.83    1011.30       14.80     7.71   0.971
  S12                     1041.25       0.00       0.00       0.00       9.48    1031.78    1041.25        9.04     4.59   1.000
  S13                     1041.25       0.00       0.00       0.00       0.00    1031.78    1031.78        8.71     4.43   0.991
  S14                     1041.25       0.00       0.00       0.00       8.75    1032.51    1041.25        8.36     4.25   1.000
  S15                     1041.25       0.00       0.00       0.00       8.75    1032.51    1041.25        7.81     3.97   1.000
  S16                     1041.25       0.00       0.00       0.00       8.02    1027.27    1035.28       18.28     9.34   0.994
  S17                     1041.25       0.00       0.00       0.00       8.02     957.62     965.64       32.88    17.54   0.927
  S18                     1041.25       0.00       0.00       0.00       8.02    1033.21    1041.23        1.34     0.68   1.000
  S19                     1041.25       0.00       0.00       0.00       8.02       0.00       8.02        0.02     0.01   0.008
  S20                     1041.25       0.00       0.00       0.00       8.02    1033.21    1041.22        1.06     0.54   1.000
  S21                     1041.25       0.00       0.00       0.00       8.02    1016.72    1024.73       16.99     8.76   0.984
  S22                     1041.25       0.00       0.00       0.00       8.02    1033.22    1041.24        0.34     0.17   1.000
  S23                     1041.25       0.00       0.00       0.00       8.02    1033.23    1041.25        0.41     0.21   1.000
  S24                     1041.25       0.00       0.00       0.00       8.02    1033.23    1041.25        0.51     0.26   1.000
  S25                     1041.25       0.00       0.00       0.00       8.02    1033.23    1041.25        0.61     0.31   1.000
  S26                     1041.25       0.00       0.00       0.00       8.02    1033.23    1041.25        0.72     0.37   1.000
  S27                     1041.25       0.00       0.00       0.00       8.02    1033.26    1041.28        8.65     4.40   1.000
  S28                     1041.25       0.00       0.00       0.00       8.02    1018.60    1026.62        9.12     4.69   0.986
  S29                     1041.25       0.00       0.00       0.00       8.02    1033.17    1041.19        0.96     0.49   1.000
  S30                     1041.25       0.00       0.00       0.00       8.02     934.71     942.73       60.05    32.27   0.905
  S31                     1041.25       0.00       0.00       0.00       8.33    1032.92    1041.25       14.11     7.17   1.000
  S32                     1041.25       0.00       0.00       0.00       8.33    1032.92    1041.25        4.34     2.21   1.000
  S33                     1041.25       0.00       0.00       0.00       9.79    1031.46    1041.25        3.24     1.65   1.000
  S34                     1041.25       0.00       0.00       0.00       9.79    1031.46    1041.25        3.43     1.74   1.000
  S35                     1041.25       0.00       0.00       0.00       9.48    1031.78    1041.25        4.19     2.13   1.000
  S36                     1041.25       0.00       0.00       0.00       9.48    1031.78    1041.25        1.72     0.87   1.000
  S37                     1041.25       0.00       0.00       0.00       9.47    1031.78    1041.25        3.75     1.91   1.000
  S38                     1041.25       0.00       0.00       0.00       9.48    1031.78    1041.25        0.17     0.08   1.000
  S39                     1041.25       0.00       0.00       0.00       9.47    1031.78    1041.25        4.27     2.17   1.000
  S40                     1041.25       0.00       0.00       0.00       9.48    1031.78    1041.25        1.47     0.75   1.000
  S41                     1041.25       0.00       0.00       0.00       9.47    1031.78    1041.25        2.36     1.20   1.000
  S42                     1041.25       0.00       0.00       0.00       9.48    1031.78    1041.25        3.29     1.67   1.000
  S43                     1041.25       0.00       0.00       0.00       9.48    1031.78    1041.25        7.50     3.81   1.000
  S44                     1041.25       0.00       0.00       0.00       9.48    1031.78    1041.25        5.44     2.76   1.000
  S45                     1041.25       0.00       0.00       0.00       9.48    1031.78    1041.25        0.55     0.28   1.000
  S46                     1041.25       0.00       0.00       0.00       9.48    1031.78    1041.25        5.04     2.56   1.000
  S47                     1041.25       0.00       0.00       0.00       9.48    1031.78    1041.25       10.18     5.18   1.000
  S48                     1041.25       0.00       0.00       0.00       9.47    1031.78    1041.25       11.77     5.98   1.000
  S49                     1041.25       0.00       0.00       0.00       9.47    1031.78    1041.25        7.15     3.64   1.000
  S50                     1041.25       0.00       0.00       0.00       9.48    1031.78    1041.25        5.89     3.00   1.000
  S51                     1041.25       0.00       0.00       0.00       9.48    1031.78    1041.25        3.48     1.77   1.000
  S52                     1041.25       0.00       0.00       0.00       9.48    1031.78    1041.25        9.22     4.68   1.000
  S53                     1041.25       0.00       0.00       0.00       9.48    1017.93    1027.40       12.51     6.44   0.987
  S54                     1041.25       0.00       0.00       0.00       9.48    1030.53    1040.01        4.75     2.42   0.999
  S55                     1041.25       0.00       0.00       0.00       9.48    1031.78    1041.25        0.40     0.20   1.000
  S56                     1041.25       0.00       0.00       0.00       9.48    1031.77    1041.24        0.40     0.20   1.000
  S57                     1041.25       0.00       0.00       0.00       9.48    1031.78    1041.25        5.38     2.74   1.000
  S58                     1041.25       0.00       0.00       0.00       9.48    1031.78    1041.25        6.91     3.51   1.000
  S59                     1041.25       0.00       0.00       0.00       9.48    1031.78    1041.25        6.72     3.41   1.000
  S60                     1041.25       0.00       0.00       0.00       8.02    1032.99    1041.01        4.09     2.08   1.000
  S61                     1041.25       0.00       0.00       0.00       8.02       0.00       8.02        0.03     0.01   0.008
  S62                     1041.25       0.00       0.00       0.00       8.02     917.79     925.81       49.61    26.75   0.889
  S63                     1041.25       0.00       0.00       0.00       8.02    1033.23    1041.25        9.79     4.97   1.000
  S64                     1041.25       0.00       0.00       0.00       8.02    1033.23    1041.25       26.50    13.47   1.000
  S65                     1041.25       0.00       0.00       0.00       8.02    1033.23    1041.25        4.23     2.15   1.000
  S66                     1041.25       0.00       0.00       0.00       8.02    1033.23    1041.25        6.82     3.47   1.000
  S67                     1041.25       0.00       0.00       0.00       8.02    1033.23    1041.25       12.74     6.48   1.000
  S68                     1041.25       0.00       0.00       0.00       8.02    1033.23    1041.25       14.94     7.59   1.000
  S69                     1041.25       0.00       0.00       0.00       8.02       0.00       8.02        0.20     0.10   0.008
  S70                     1041.25       0.00       0.00       0.00       8.02    1015.85    1023.86       26.79    13.83   0.983
  S71                     1041.25       0.00       0.00       0.00       9.48    1031.78    1041.25       15.32     7.78   1.000
  S72                     1041.25       0.00       0.00       0.00       8.02    1028.73    1036.74        5.14     2.62   0.996
  S73                     1041.25       0.00       0.00       0.00       8.02    1033.23    1041.25       21.82    11.09   1.000
  S74                     1041.25       0.00       0.00       0.00       8.02       0.00       8.02        0.05     0.03   0.008
  S75                     1041.25       0.00       0.00       0.00       8.02    1033.23    1041.25        0.70     0.35   1.000
  S76                     1041.25       0.00       0.00       0.00       8.02    1033.23    1041.25       13.76     6.99   1.000
  S77                     1041.25       0.00       0.00       0.00       8.02    1033.23    1041.25       11.13     5.66   1.000
  S78                     1041.25       0.00       0.00       0.00       8.02    1033.23    1041.25        8.07     4.10   1.000
  S79                     1041.25       0.00       0.00       0.00       9.48    1031.78    1041.25        7.07     3.59   1.000
  S80                     1041.25       0.00       0.00       0.00       8.02    1033.26    1041.28        2.87     1.46   1.000
  S81                     1041.25       0.00       0.00       0.00       8.02    1033.23    1041.25       11.78     5.99   1.000
  S82                     1041.25       0.00       0.00       0.00       8.02    1033.23    1041.25       11.50     5.84   1.000
  S83                     1041.25       0.00       0.00       0.00       8.02    1033.23    1041.25        7.39     3.76   1.000
  S84                     1041.25       0.00       0.00       0.00       9.48    1031.78    1041.25        4.83     2.46   1.000
  S85                     1041.25       0.00       0.00       0.00       9.48    1021.89    1031.37       12.75     6.54   0.991
  S86                     1041.25       0.00       0.00       0.00       0.00    1031.78    1031.78       11.94     6.07   0.991
  S87                     1041.25       0.00       0.00       0.00       9.48    1031.78    1041.25       12.93     6.57   1.000
  S88                     1041.25       0.00       0.00       0.00       9.48    1031.78    1041.25        2.33     1.19   1.000
  S89                     1041.25       0.00       0.00       0.00       9.48    1031.78    1041.25       10.53     5.35   1.000
  S90                     1041.25       0.00       0.00       0.00       0.00    1031.78    1031.78        5.07     2.57   0.991
  S91                     1041.25       0.00       0.00       0.00       9.48    1031.78    1041.25        1.72     0.87   1.000
  
  
  ******************
  Node Depth Summary
  ******************
  
  ---------------------------------------------------------------------------------
                                 Average  Maximum  Maximum  Time of Max    Reported
                                   Depth    Depth      HGL   Occurrence   Max Depth
  Node                 Type       Meters   Meters   Meters  days hr:min      Meters
  ---------------------------------------------------------------------------------
  J7                   JUNCTION     2.49     2.50     2.50     0  00:05        2.50
  J13                  JUNCTION     2.49     2.50     2.50     0  00:05        2.50
  J19                  JUNCTION     2.49     2.50     2.50     0  00:05        2.50
  J25                  JUNCTION     2.49     2.50     2.50     0  00:05        2.50
  J1                   JUNCTION     2.49     2.50     2.50     0  00:05        2.50
  J2                   JUNCTION     2.49     2.50     2.50     0  00:05        2.50
  J3                   JUNCTION     2.49     2.50     2.50     0  00:05        2.50
  J4                   JUNCTION     2.49     2.50     2.50     0  00:05        2.50
  J5                   JUNCTION     2.49     2.50     2.50     0  00:05        2.50
  J6                   JUNCTION     2.49     2.50     2.50     0  00:05        2.50
  J8                   JUNCTION     2.49     2.50     2.50     0  00:05        2.50
  J9                   JUNCTION     2.49     2.50     2.50     0  00:05        2.50
  J10                  JUNCTION     2.49     2.50     2.50     0  00:05        2.50
  J11                  JUNCTION     2.49     2.50     2.50     0  00:05        2.50
  J12                  JUNCTION     2.49     2.50     2.50     0  00:05        2.50
  J14                  JUNCTION     2.49     2.50     2.50     0  00:05        2.50
  J15                  JUNCTION     2.49     2.50     2.50     0  00:05        2.50
  J16                  JUNCTION     2.49     2.50     2.50     0  00:05        2.50
  J17                  JUNCTION     2.49     2.50     2.50     0  00:05        2.50
  J18                  JUNCTION     2.49     2.50     2.50     0  00:05        2.50
  J20                  JUNCTION     2.49     2.50     2.50     0  00:05        2.50
  J21                  JUNCTION     2.49     2.50     2.50     0  00:05        2.50
  J22                  JUNCTION     2.49     2.50     2.50     0  00:05        2.50
  J23                  JUNCTION     2.49     2.50     2.50     0  00:05        2.50
  J24                  JUNCTION     2.49     2.50     2.50     0  00:05        2.50
  J26                  JUNCTION     2.49     2.50     2.50     0  00:05        2.50
  J27                  JUNCTION     2.49     2.50     2.50     0  00:05        2.50
  J29                  JUNCTION     2.49     2.50     2.50     0  00:05        2.50
  J30                  JUNCTION     2.49     2.50     2.50     0  00:05        2.50
  J31                  JUNCTION     2.49     2.50     2.50     0  00:05        2.50
  J33                  JUNCTION     2.49     2.50     2.50     0  00:05        2.50
  J32                  JUNCTION     2.49     2.50     2.50     0  00:05        2.50
  J28                  JUNCTION     2.49     2.50     2.50     0  00:05        2.50
  OF                   OUTFALL      1.36     1.41     1.41     0  00:05        1.37
  
  
  *******************
  Node Inflow Summary
  *******************
  
  -------------------------------------------------------------------------------------------------
                                  Maximum  Maximum                  Lateral       Total        Flow
                                  Lateral    Total  Time of Max      Inflow      Inflow     Balance
                                   Inflow   Inflow   Occurrence      Volume      Volume       Error
  Node                 Type           CMS      CMS  days hr:min    10^6 ltr    10^6 ltr     Percent
  -------------------------------------------------------------------------------------------------
  J7                   JUNCTION    35.514   35.514     0  00:30        64.6        64.6       0.951
  J13                  JUNCTION     3.019    3.440     0  00:25         5.8        7.33       3.193
  J19                  JUNCTION   143.082  143.082     0  00:30         276         276       2.277
  J25                  JUNCTION    17.541   18.126     0  00:30        31.9        34.4       1.524
  J1                   JUNCTION    12.011   12.011     0  00:30        23.2        23.2       2.282
  J2                   JUNCTION     9.023    9.252     0  00:25        17.4        18.2       2.361
  J3                   JUNCTION     0.402    3.199     0  00:05       0.776        2.44      10.408
  J4                   JUNCTION    26.128   26.439     0  00:25        50.4        51.4       1.942
  J5                   JUNCTION    21.603   21.779     0  00:25        41.7        42.3       2.064
  J6                   JUNCTION     9.452    9.452     0  00:30        18.2        18.2       1.742
  J8                   JUNCTION    14.543   14.543     0  00:25        28.1        28.1       2.399
  J9                   JUNCTION     6.538    7.031     0  00:30        12.5        14.3       1.874
  J10                  JUNCTION     9.759    9.759     0  00:25        18.8        18.8       2.224
  J11                  JUNCTION    10.484   10.749     0  00:25        20.2        21.1       2.097
  J12                  JUNCTION    11.093   11.491     0  00:25        21.4        22.8       2.440
  J14                  JUNCTION     9.399    9.399     0  00:30        18.1        18.1       2.528
  J15                  JUNCTION    13.447   13.447     0  00:30        25.8        25.8       1.987
  J16                  JUNCTION     7.785    8.247     0  00:25          15        16.6       2.170
  J17                  JUNCTION     0.101    2.673     0  00:05       0.195        2.41       3.795
  J18                  JUNCTION     0.355    2.276     0  00:05       0.684        2.66       9.364
  J20                  JUNCTION    26.262   26.262     0  00:30        50.3        50.3       2.286
  J21                  JUNCTION     8.676    8.676     0  00:25        16.7        16.7       2.528
  J22                  JUNCTION    17.800   17.800     0  00:30        33.9        33.9       1.787
  J23                  JUNCTION     9.345    9.696     0  00:30        17.9        19.3       2.325
  J24                  JUNCTION     1.232    1.973     0  00:05        2.38        3.44       4.986
  J26                  JUNCTION     7.663    7.663     0  00:30        14.8        14.8       2.063
  J27                  JUNCTION     6.721    7.066     0  00:25          13        14.1       2.712
  J29                  JUNCTION    11.024   11.551     0  00:25        21.3        23.5       3.030
  J30                  JUNCTION     0.000    3.670     0  00:05           0        2.59      11.323
  J31                  JUNCTION    32.265   32.454     0  00:30        58.1        58.9       0.721
  J33                  JUNCTION    10.847   10.847     0  00:30        20.9        20.9       2.174
  J32                  JUNCTION     4.948    5.434     0  00:25        9.55        11.4       2.534
  J28                  JUNCTION     7.912    8.362     0  00:25        15.3          17       3.061
  OF                   OUTFALL      0.000    7.967     0  00:05           0          21       0.000
  
  
  **********************
  Node Surcharge Summary
  **********************
  
  Surcharging occurs when water rises above the top of the highest conduit.
  ---------------------------------------------------------------------
                                               Max. Height   Min. Depth
                                   Hours       Above Crown    Below Rim
  Node                 Type      Surcharged         Meters       Meters
  ---------------------------------------------------------------------
  J7                   JUNCTION        0.83          0.850        0.000
  J13                  JUNCTION        0.83          0.850        0.000
  J19                  JUNCTION        0.83          0.850        0.000
  J25                  JUNCTION        0.83          0.850        0.000
  J1                   JUNCTION        0.83          0.850        0.000
  J2                   JUNCTION        0.83          0.850        0.000
  J3                   JUNCTION        0.83          0.850        0.000
  J4                   JUNCTION        0.83          0.850        0.000
  J5                   JUNCTION        0.83          0.850        0.000
  J6                   JUNCTION        0.83          0.850        0.000
  J8                   JUNCTION        0.83          0.850        0.000
  J9                   JUNCTION        0.83          0.850        0.000
  J10                  JUNCTION        0.83          0.850        0.000
  J11                  JUNCTION        0.83          0.850        0.000
  J12                  JUNCTION        0.83          0.850        0.000
  J14                  JUNCTION        0.83          0.850        0.000
  J15                  JUNCTION        0.83          0.850        0.000
  J16                  JUNCTION        0.83          0.850        0.000
  J17                  JUNCTION        0.83          0.850        0.000
  J18                  JUNCTION        0.83          0.850        0.000
  J20                  JUNCTION        0.83          0.850        0.000
  J21                  JUNCTION        0.83          0.850        0.000
  J22                  JUNCTION        0.83          0.850        0.000
  J23                  JUNCTION        0.83          0.850        0.000
  J24                  JUNCTION        0.83          0.850        0.000
  J26                  JUNCTION        0.83          0.850        0.000
  J27                  JUNCTION        0.83          0.850        0.000
  J29                  JUNCTION        0.83          0.850        0.000
  J30                  JUNCTION        0.83          0.850        0.000
  J31                  JUNCTION        0.83          0.850        0.000
  J33                  JUNCTION        0.83          0.850        0.000
  J32                  JUNCTION        0.83          0.850        0.000
  J28                  JUNCTION        0.83          0.850        0.000
  
  
  *********************
  Node Flooding Summary
  *********************
  
  Flooding refers to all water that overflows a node, whether it ponds or not.
  --------------------------------------------------------------------------
                                                             Total   Maximum
                                 Maximum   Time of Max       Flood    Ponded
                        Hours       Rate    Occurrence      Volume     Depth
  Node                 Flooded       CMS   days hr:min    10^6 ltr    Meters
  --------------------------------------------------------------------------
  J7                      0.83    35.079      0  00:30      62.763     0.000
  J13                     0.83     3.439      0  00:25       7.327     0.000
  J19                     0.83   135.730      0  00:30     255.003     0.000
  J25                     0.83    18.113      0  00:30      34.444     0.000
  J1                      0.83    11.815      0  00:30      22.351     0.000
  J2                      0.83     8.892      0  00:30      17.034     0.000
  J3                      0.83     3.071      0  00:05       2.440     0.000
  J4                      0.83    25.937      0  00:30      48.607     0.000
  J5                      0.83    21.024      0  00:30      39.182     0.000
  J6                      0.83     8.907      0  00:30      16.023     0.000
  J8                      0.83    14.373      0  00:30      27.428     0.000
  J9                      0.83     6.809      0  00:30      13.198     0.000
  J10                     0.83     9.375      0  00:30      17.555     0.000
  J11                     0.83    10.365      0  00:30      19.530     0.000
  J12                     0.83    11.244      0  00:25      21.846     0.000
  J14                     0.83     9.399      0  00:30      18.142     0.000
  J15                     0.83    13.094      0  00:30      24.401     0.000
  J16                     0.83     7.975      0  00:25      15.412     0.000
  J17                     0.83     1.179      0  00:05       0.842     0.000
  J18                     0.75     1.524      0  00:05       1.606     0.000
  J20                     0.83    26.259      0  00:30      50.269     0.000
  J21                     0.83     8.676      0  00:25      16.746     0.000
  J22                     0.83    17.416      0  00:30      32.304     0.000
  J23                     0.83     9.507      0  00:30      18.566     0.000
  J24                     0.75     1.252      0  00:25       2.371     0.000
  J26                     0.83     7.458      0  00:30      13.870     0.000
  J27                     0.83     7.065      0  00:25      14.084     0.000
  J29                     0.83    11.389      0  00:25      23.004     0.000
  J30                     0.83     3.557      0  00:05       2.594     0.000
  J31                     0.83    32.181      0  00:30      57.415     0.000
  J33                     0.83    10.640      0  00:30      19.996     0.000
  J32                     0.83     5.174      0  00:25      10.343     0.000
  J28                     0.83     8.360      0  00:25      17.001     0.000
  
  
  ***********************
  Outfall Loading Summary
  ***********************
  
  -----------------------------------------------------------
                         Flow       Avg       Max       Total
                         Freq      Flow      Flow      Volume
  Outfall Node           Pcnt       CMS       CMS    10^6 ltr
  -----------------------------------------------------------
  OF                   100.00     7.321     7.967      21.044
  -----------------------------------------------------------
  System               100.00     7.321     7.967      21.044
  
  
  ********************
  Link Flow Summary
  ********************
  
  -----------------------------------------------------------------------------
                                 Maximum  Time of Max   Maximum    Max/    Max/
                                  |Flow|   Occurrence   |Veloc|    Full    Full
  Link                 Type          CMS  days hr:min     m/sec    Flow   Depth
  -----------------------------------------------------------------------------
  P1                   PUMP        0.000     0  00:00                          
  C23                  CONDUIT     0.438     0  00:05      0.20    3.81    1.00
  C24                  CONDUIT     0.041     0  00:05      0.02    0.36    1.00
  C25                  CONDUIT     0.399     0  00:05      0.19    3.19    1.00
  C26                  CONDUIT     0.125     0  00:05      0.06    0.98    1.00
  C27                  CONDUIT     0.475     0  00:05      0.22    3.91    1.00
  C28                  CONDUIT     1.356     0  00:05      0.63    9.35    1.00
  C29                  CONDUIT     0.750     0  00:05      0.35    5.28    1.00
  C30                  CONDUIT     0.172     0  00:05      0.08    1.51    1.00
  C31                  CONDUIT     0.370     0  00:05      0.17    3.24    1.00
  C32                  CONDUIT     0.000     0  00:05      0.00    0.00    1.00
  C33                  CONDUIT     2.941     0  00:05      1.38   17.21    1.00
  C34                  CONDUIT     0.499     0  00:05      0.23    3.97    1.00
  C35                  CONDUIT     0.377     0  00:05      0.18    4.01    1.00
  C36                  CONDUIT     0.839     0  00:05      0.39    7.91    1.00
  C37                  CONDUIT     0.419     0  00:05      0.20    2.87    1.00
  C38                  CONDUIT     0.442     0  00:05      0.21    3.08    1.00
  C39                  CONDUIT     0.000     0  00:05      0.00    0.00    1.00
  C40                  CONDUIT     0.000     0  00:00      0.00    0.00    1.00
  C41                  CONDUIT     0.910     0  00:05      0.43    7.06    1.00
  C43                  CONDUIT     0.938     0  00:05      0.44    7.15    1.00
  C44                  CONDUIT     1.421     0  00:05      0.66   12.13    1.00
  C45                  CONDUIT     1.245     0  00:05      0.58   10.68    1.00
  C46                  CONDUIT     2.425     0  00:05      1.13   20.10    1.00
  C48                  CONDUIT     0.000     0  00:05      0.00    0.00    1.00
  C42                  CONDUIT     0.000     0  00:05      0.00    0.00    1.00
  C50                  CONDUIT     1.208     0  00:05      0.56   11.67    1.00
  C49                  CONDUIT     0.313     0  00:05      0.15    2.73    1.00
  C01                  CONDUIT     0.000     0  00:00      0.00    0.00    1.00
  C02                  CONDUIT     0.000     0  00:00      0.00    0.00    1.00
  C03                  CONDUIT     0.829     0  00:05      0.39    6.62    1.00
  C04                  CONDUIT     0.659     0  00:05      0.31    5.18    1.00
  C05                  CONDUIT     0.897     0  00:05      0.42    7.16    1.00
  C06                  CONDUIT     0.000     0  00:00      0.00    0.00    1.00
  C07                  CONDUIT     0.000     0  00:00      0.00    0.00    1.00
  C08                  CONDUIT     0.000     0  00:00      0.00    0.00    1.00
  C09                  CONDUIT     0.559     0  00:05      0.26    4.90    1.00
  C10                  CONDUIT     0.642     0  00:05      0.30    5.12    1.00
  C11                  CONDUIT     0.000     0  00:00      0.00    0.00    1.00
  C12                  CONDUIT     0.355     0  00:05      0.17    3.06    1.00
  C13                  CONDUIT     0.765     0  00:05      0.36    6.65    1.00
  C14                  CONDUIT     1.505     0  00:05      0.70   11.96    1.00
  C15                  CONDUIT     1.092     0  00:05      0.51    8.67    1.00
  C16                  CONDUIT     1.184     0  00:05      0.55   10.39    1.00
  C17                  CONDUIT     1.103     0  00:05      0.52    9.73    1.00
  C18                  CONDUIT     0.000     0  00:00      0.00    0.00    1.00
  C19                  CONDUIT     0.616     0  00:05      0.29    4.90    1.00
  C20                  CONDUIT     0.958     0  00:05      0.45    8.53    1.00
  C21                  CONDUIT     0.660     0  00:05      0.31    6.23    1.00
  C22                  CONDUIT     0.320     0  00:05      0.15    2.53    1.00
  C47                  CONDUIT     0.663     0  00:05      0.31    6.81    1.00
  Cout                 CONDUIT     7.967     0  00:05      3.85   62.91    0.93
  
  
  ***************************
  Flow Classification Summary
  ***************************
  
  -------------------------------------------------------------------------------------
                      Adjusted    ---------- Fraction of Time in Flow Class ---------- 
                       /Actual         Up    Down  Sub   Sup   Up    Down  Norm  Inlet 
  Conduit               Length    Dry  Dry   Dry   Crit  Crit  Crit  Crit  Ltd   Ctrl  
  -------------------------------------------------------------------------------------
  C23                     1.00   0.00  0.00  0.00  1.00  0.00  0.00  0.00  0.00  0.00
  C24                     1.00   0.00  0.00  0.00  1.00  0.00  0.00  0.00  0.00  0.00
  C25                     1.00   0.00  0.00  0.00  1.00  0.00  0.00  0.00  0.00  0.00
  C26                     1.00   0.00  0.00  0.00  1.00  0.00  0.00  0.00  0.00  0.00
  C27                     1.00   0.00  0.00  0.00  1.00  0.00  0.00  0.00  0.00  0.00
  C28                     1.00   0.00  0.00  0.00  1.00  0.00  0.00  0.00  0.00  0.00
  C29                     1.00   0.00  0.00  0.00  1.00  0.00  0.00  0.00  0.00  0.00
  C30                     1.00   0.00  0.00  0.00  1.00  0.00  0.00  0.00  0.00  0.00
  C31                     1.00   0.00  0.00  0.00  1.00  0.00  0.00  0.00  0.00  0.00
  C32                     1.00   0.00  0.00  0.00  1.00  0.00  0.00  0.00  0.00  0.00
  C33                     1.00   0.00  0.00  0.00  1.00  0.00  0.00  0.00  0.00  0.00
  C34                     1.00   0.00  0.00  0.00  1.00  0.00  0.00  0.00  0.00  0.00
  C35                     1.00   0.00  0.00  0.00  1.00  0.00  0.00  0.00  0.00  0.00
  C36                     1.00   0.00  0.00  0.00  1.00  0.00  0.00  0.00  0.00  0.00
  C37                     1.00   0.00  0.00  0.00  1.00  0.00  0.00  0.00  0.00  0.00
  C38                     1.00   0.00  0.00  0.00  1.00  0.00  0.00  0.00  0.00  0.00
  C39                     1.00   0.00  0.00  0.00  1.00  0.00  0.00  0.00  0.00  0.00
  C40                     1.00   0.00  0.00  0.00  1.00  0.00  0.00  0.00  0.00  0.00
  C41                     1.00   0.00  0.00  0.00  1.00  0.00  0.00  0.00  0.00  0.00
  C43                     1.00   0.00  0.00  0.00  1.00  0.00  0.00  0.00  0.00  0.00
  C44                     1.00   0.00  0.00  0.00  1.00  0.00  0.00  0.00  0.00  0.00
  C45                     1.00   0.00  0.00  0.00  1.00  0.00  0.00  0.00  0.00  0.00
  C46                     1.00   0.00  0.00  0.00  1.00  0.00  0.00  0.00  0.00  0.00
  C48                     1.00   0.00  0.00  0.00  1.00  0.00  0.00  0.00  0.00  0.00
  C42                     1.00   0.00  0.00  0.00  1.00  0.00  0.00  0.00  0.00  0.00
  C50                     1.00   0.00  0.00  0.00  1.00  0.00  0.00  0.00  0.00  0.00
  C49                     1.00   0.00  0.00  0.00  1.00  0.00  0.00  0.00  0.00  0.00
  C01                     1.00   0.00  0.00  0.00  1.00  0.00  0.00  0.00  0.00  0.00
  C02                     1.00   0.00  0.00  0.00  1.00  0.00  0.00  0.00  0.00  0.00
  C03                     1.00   0.00  0.00  0.00  1.00  0.00  0.00  0.00  0.00  0.00
  C04                     1.00   0.00  0.00  0.00  1.00  0.00  0.00  0.00  0.00  0.00
  C05                     1.00   0.00  0.00  0.00  1.00  0.00  0.00  0.00  0.00  0.00
  C06                     1.00   0.00  0.00  0.00  1.00  0.00  0.00  0.00  0.00  0.00
  C07                     1.00   0.00  0.00  0.00  1.00  0.00  0.00  0.00  0.00  0.00
  C08                     1.00   0.00  0.00  0.00  1.00  0.00  0.00  0.00  0.00  0.00
  C09                     1.00   0.00  0.00  0.00  1.00  0.00  0.00  0.00  0.00  0.00
  C10                     1.00   0.00  0.00  0.00  1.00  0.00  0.00  0.00  0.00  0.00
  C11                     1.00   0.00  0.00  0.00  1.00  0.00  0.00  0.00  0.00  0.00
  C12                     1.00   0.00  0.00  0.00  1.00  0.00  0.00  0.00  0.00  0.00
  C13                     1.00   0.00  0.00  0.00  1.00  0.00  0.00  0.00  0.00  0.00
  C14                     1.00   0.00  0.00  0.00  1.00  0.00  0.00  0.00  0.00  0.00
  C15                     1.00   0.00  0.00  0.00  1.00  0.00  0.00  0.00  0.00  0.00
  C16                     1.00   0.00  0.00  0.00  1.00  0.00  0.00  0.00  0.00  0.00
  C17                     1.00   0.00  0.00  0.00  1.00  0.00  0.00  0.00  0.00  0.00
  C18                     1.00   0.00  0.00  0.00  1.00  0.00  0.00  0.00  0.00  0.00
  C19                     1.00   0.00  0.00  0.00  1.00  0.00  0.00  0.00  0.00  0.00
  C20                     1.00   0.00  0.00  0.00  1.00  0.00  0.00  0.00  0.00  0.00
  C21                     1.00   0.00  0.00  0.00  1.00  0.00  0.00  0.00  0.00  0.00
  C22                     1.00   0.00  0.00  0.00  1.00  0.00  0.00  0.00  0.00  0.00
  C47                     1.00   0.00  0.00  0.00  1.00  0.00  0.00  0.00  0.00  0.00
  Cout                    1.00   0.00  0.00  0.00  1.00  0.00  0.00  0.00  0.00  0.00
  
  
  *************************
  Conduit Surcharge Summary
  *************************
  
  ----------------------------------------------------------------------------
                                                           Hours        Hours 
                         --------- Hours Full --------   Above Full   Capacity
  Conduit                Both Ends  Upstream  Dnstream   Normal Flow   Limited
  ----------------------------------------------------------------------------
  C23                         0.83      0.83      0.83      0.79         0.01
  C24                         0.83      0.83      0.83      0.01         0.01
  C25                         0.83      0.83      0.83      0.69         0.01
  C26                         0.83      0.83      0.83      0.01         0.01
  C27                         0.83      0.83      0.83      0.76         0.01
  C28                         0.83      0.83      0.83      0.76         0.01
  C29                         0.83      0.83      0.83      0.71         0.01
  C30                         0.83      0.83      0.83      0.41         0.01
  C31                         0.83      0.83      0.83      0.75         0.01
  C32                         0.83      0.83      0.83      0.01         0.01
  C33                         0.83      0.83      0.83      0.69         0.01
  C34                         0.83      0.83      0.83      0.74         0.01
  C35                         0.83      0.83      0.83      0.83         0.01
  C36                         0.83      0.83      0.83      0.83         0.01
  C37                         0.83      0.83      0.83      0.57         0.01
  C38                         0.83      0.83      0.83      0.60         0.01
  C39                         0.83      0.83      0.83      0.01         0.01
  C40                         0.83      0.83      0.83      0.01         0.01
  C41                         0.83      0.83      0.83      0.82         0.01
  C43                         0.83      0.83      0.83      0.81         0.01
  C44                         0.83      0.83      0.83      0.83         0.01
  C45                         0.83      0.83      0.83      0.83         0.01
  C46                         0.83      0.83      0.83      0.83         0.01
  C48                         0.83      0.83      0.83      0.01         0.01
  C42                         0.83      0.83      0.83      0.01         0.01
  C50                         0.83      0.83      0.83      0.83         0.01
  C49                         0.83      0.83      0.83      0.69         0.01
  C01                         0.83      0.83      0.83      0.01         0.01
  C02                         0.83      0.83      0.83      0.01         0.01
  C03                         0.83      0.83      0.83      0.83         0.01
  C04                         0.83      0.83      0.83      0.78         0.01
  C05                         0.83      0.83      0.83      0.83         0.08
  C06                         0.83      0.83      0.83      0.01         0.01
  C07                         0.83      0.83      0.83      0.01         0.01
  C08                         0.83      0.83      0.83      0.01         0.01
  C09                         0.83      0.83      0.83      0.83         0.01
  C10                         0.83      0.83      0.83      0.79         0.01
  C11                         0.83      0.83      0.83      0.01         0.01
  C12                         0.83      0.83      0.83      0.72         0.01
  C13                         0.83      0.83      0.83      0.83         0.08
  C14                         0.83      0.83      0.83      0.83         0.01
  C15                         0.83      0.83      0.83      0.83         0.08
  C16                         0.83      0.83      0.83      0.83         0.01
  C17                         0.83      0.83      0.83      0.83         0.01
  C18                         0.83      0.83      0.83      0.01         0.01
  C19                         0.83      0.83      0.83      0.78         0.01
  C20                         0.83      0.83      0.83      0.83         0.01
  C21                         0.83      0.83      0.83      0.83         0.01
  C22                         0.83      0.83      0.83      0.61         0.01
  C47                         0.83      0.83      0.83      0.83         0.01
  Cout                        0.01      0.83      0.01      0.83         0.01
  
  
  ***************
  Pumping Summary
  ***************
  
  ---------------------------------------------------------------------------------------------------------
                                                  Min       Avg       Max     Total     Power    % Time Off
                        Percent   Number of      Flow      Flow      Flow    Volume     Usage    Pump Curve
  Pump                 Utilized   Start-Ups       CMS       CMS       CMS  10^6 ltr     Kw-hr    Low   High
  ---------------------------------------------------------------------------------------------------------
  P1                       0.00           0      0.00      0.00      0.00     0.000      0.00    0.0    0.0
  

  Analysis begun on:  Mon Nov 25 15:13:32 2024
  Analysis ended on:  Mon Nov 25 15:13:32 2024
  Total elapsed time: < 1 sec