
  EPA STORM WATER MANAGEMENT MODEL - VERSION 5.2 (Build 5.2.4)
  PYSWMM TOOLKIT API - VERSION v1.0 (2023-11-27)
  ------------------------------------------------------------

  WARNING 04: minimum elevation drop used for Conduit C23
  WARNING 04: minimum elevation drop used for Conduit C24
  WARNING 04: minimum elevation drop used for Conduit C25
  WARNING 04: minimum elevation drop used for Conduit C26
  WARNING 04: minimum elevation drop used for Conduit C27
  WARNING 04: minimum elevation drop used for Conduit C28
  WARNING 04: minimum elevation drop used for Conduit C29
  WARNING 04: minimum elevation drop used for Conduit C30
  WARNING 04: minimum elevation drop used for Conduit C31
  WARNING 04: minimum elevation drop used for Conduit C32
  WARNING 04: minimum elevation drop used for Conduit C33
  WARNING 04: minimum elevation drop used for Conduit C34
  WARNING 04: minimum elevation drop used for Conduit C35
  WARNING 04: minimum elevation drop used for Conduit C36
  WARNING 04: minimum elevation drop used for Conduit C37
  WARNING 04: minimum elevation drop used for Conduit C38
  WARNING 04: minimum elevation drop used for Conduit C39
  WARNING 04: minimum elevation drop used for Conduit C40
  WARNING 04: minimum elevation drop used for Conduit C41
  WARNING 04: minimum elevation drop used for Conduit C43
  WARNING 04: minimum elevation drop used for Conduit C44
  WARNING 04: minimum elevation drop used for Conduit C45
  WARNING 04: minimum elevation drop used for Conduit C46
  WARNING 04: minimum elevation drop used for Conduit C48
  WARNING 04: minimum elevation drop used for Conduit C42
  WARNING 04: minimum elevation drop used for Conduit C50
  WARNING 04: minimum elevation drop used for Conduit C49
  WARNING 04: minimum elevation drop used for Conduit C01
  WARNING 04: minimum elevation drop used for Conduit C02
  WARNING 04: minimum elevation drop used for Conduit C03
  WARNING 04: minimum elevation drop used for Conduit C04
  WARNING 04: minimum elevation drop used for Conduit C05
  WARNING 04: minimum elevation drop used for Conduit C06
  WARNING 04: minimum elevation drop used for Conduit C07
  WARNING 04: minimum elevation drop used for Conduit C08
  WARNING 04: minimum elevation drop used for Conduit C09
  WARNING 04: minimum elevation drop used for Conduit C10
  WARNING 04: minimum elevation drop used for Conduit C11
  WARNING 04: minimum elevation drop used for Conduit C12
  WARNING 04: minimum elevation drop used for Conduit C13
  WARNING 04: minimum elevation drop used for Conduit C14
  WARNING 04: minimum elevation drop used for Conduit C15
  WARNING 04: minimum elevation drop used for Conduit C16
  WARNING 04: minimum elevation drop used for Conduit C17
  WARNING 04: minimum elevation drop used for Conduit C18
  WARNING 04: minimum elevation drop used for Conduit C19
  WARNING 04: minimum elevation drop used for Conduit C20
  WARNING 04: minimum elevation drop used for Conduit C21
  WARNING 04: minimum elevation drop used for Conduit C22
  WARNING 04: minimum elevation drop used for Conduit C47
  WARNING 04: minimum elevation drop used for Conduit Cout
  
  ****************
  Analysis Options
  ****************
  Flow Units ............... CMS
  Process Models:
    Rainfall/Runoff ........ YES
    RDII ................... NO
    Snowmelt ............... NO
    Groundwater ............ NO
    Flow Routing ........... YES
    Ponding Allowed ........ NO
    Water Quality .......... NO
  Infiltration Method ...... HORTON
  Flow Routing Method ...... DYNWAVE
  Surcharge Method ......... EXTRAN
  Starting Date ............ 08/14/2022 12:00:00
  Ending Date .............. 08/14/2022 12:40:00
  Antecedent Dry Days ...... 0.0
  Report Time Step ......... 00:10:00
  Wet Time Step ............ 00:05:00
  Dry Time Step ............ 01:00:00
  Routing Time Step ........ 300.00 sec
  Variable Time Step ....... YES
  Maximum Trials ........... 8
  Number of Threads ........ 1
  Head Tolerance ........... 0.001524 m
  
  
  *********************
  Rainfall File Summary
  *********************
  Station    First        Last         Recording   Periods    Periods    Periods
  ID         Date         Date         Frequency  w/Precip    Missing    Malfunc.
  -------------------------------------------------------------------------------
  106        08/14/2022   08/14/2022      10 min         5          0          0

  
  
  **************************        Volume         Depth
  Runoff Quantity Continuity     hectare-m            mm
  **************************     ---------       -------
  Total Precipitation ......       146.044      1460.500
  Evaporation Loss .........         0.000         0.000
  Infiltration Loss ........         0.000         0.000
  Surface Runoff ...........       137.737      1377.425
  Final Storage ............        11.185       111.851
  Continuity Error (%) .....        -1.970
  
  
  **************************        Volume        Volume
  Flow Routing Continuity        hectare-m      10^6 ltr
  **************************     ---------     ---------
  Dry Weather Inflow .......         0.000         0.000
  Wet Weather Inflow .......       126.408      1264.090
  Groundwater Inflow .......         0.000         0.000
  RDII Inflow ..............         0.000         0.000
  External Inflow ..........         0.000         0.000
  External Outflow .........         1.664        16.641
  Flooding Loss ............       121.349      1213.498
  Evaporation Loss .........         0.000         0.000
  Exfiltration Loss ........         0.000         0.000
  Initial Stored Volume ....         0.046         0.463
  Final Stored Volume ......         1.883        18.831
  Continuity Error (%) .....         1.232
  
  
  *************************
  Highest Continuity Errors
  *************************
  Node J30 (14.39%)
  Node J3 (14.35%)
  Node J17 (11.10%)
  Node J18 (8.32%)
  Node J24 (8.16%)
  
  
  ***************************
  Time-Step Critical Elements
  ***************************
  Link Cout (98.69%)
  
  
  ********************************
  Highest Flow Instability Indexes
  ********************************
  Link C24 (2)
  Link C25 (2)
  Link C31 (2)
  Link C33 (2)
  Link C34 (2)
  
  
  *********************************
  Most Frequent Nonconverging Nodes
  *********************************
  Convergence obtained at all time steps.
  
  
  *************************
  Routing Time Step Summary
  *************************
  Minimum Time Step           :     4.92 sec
  Average Time Step           :    15.69 sec
  Maximum Time Step           :   300.00 sec
  % of Time in Steady State   :     0.00
  Average Iterations per Step :     2.03
  % of Steps Not Converging   :     0.00
  Time Step Frequencies       :
     300.000 - 83.462 sec      :     0.66 %
     83.462 - 23.220 sec      :     0.00 %
     23.220 -  6.460 sec      :    98.68 %
      6.460 -  1.797 sec      :     0.66 %
      1.797 -  0.500 sec      :     0.00 %
  
  
  ***************************
  Subcatchment Runoff Summary
  ***************************
  
  ------------------------------------------------------------------------------------------------------------------------------
                            Total      Total      Total      Total     Imperv       Perv      Total       Total     Peak  Runoff
                           Precip      Runon       Evap      Infil     Runoff     Runoff     Runoff      Runoff   Runoff   Coeff
  Subcatchment                 mm         mm         mm         mm         mm         mm         mm    10^6 ltr      CMS
  ------------------------------------------------------------------------------------------------------------------------------
  S1                      1460.50       0.00       0.00       0.00      14.46    1446.04    1460.50      368.43   261.66   1.000
  S2                      1460.50       0.00       0.00       0.00      13.29    1448.43    1461.72       11.36     8.06   1.001
  S3                      1460.50       0.00       0.00       0.00      13.29    1447.21    1460.50        3.02     2.15   1.000
  S4                      1460.50       0.00       0.00       0.00      13.29    1447.21    1460.50        2.99     2.13   1.000
  S5                      1460.50       0.00       0.00       0.00      13.29    1447.21    1460.50        4.37     3.10   1.000
  S6                      1460.50       0.00       0.00       0.00      13.29    1447.21    1460.50       12.03     8.55   1.000
  S7                      1460.50       0.00       0.00       0.00      13.29    1447.21    1460.50        2.26     1.61   1.000
  S8                      1460.50       0.00       0.00       0.00      13.29    1447.21    1460.50        7.11     5.05   1.000
  S9                      1460.50       0.00       0.00       0.00      13.29    1447.21    1460.50        8.79     6.24   1.000
  S10                     1460.50       0.00       0.00       0.00       0.00    1447.21    1447.21        2.04     1.45   0.991
  S11                     1460.50       0.00       0.00       0.00      13.29    1402.83    1416.12       20.72    15.14   0.970
  S12                     1460.50       0.00       0.00       0.00      13.29    1447.21    1460.50       12.68     9.00   1.000
  S13                     1460.50       0.00       0.00       0.00       0.00    1447.21    1447.21       12.21     8.67   0.991
  S14                     1460.50       0.00       0.00       0.00      12.27    1448.23    1460.50       11.73     8.33   1.000
  S15                     1460.50       0.00       0.00       0.00      12.27    1448.23    1460.50       10.95     7.78   1.000
  S16                     1460.50       0.00       0.00       0.00      11.25    1446.34    1457.58       25.74    18.32   0.998
  S17                     1460.50       0.00       0.00       0.00      11.25    1314.27    1325.51       45.13    34.29   0.908
  S18                     1460.50       0.00       0.00       0.00      11.25    1449.19    1460.44        1.88     1.34   1.000
  S19                     1460.50       0.00       0.00       0.00      11.25       0.00      11.25        0.03     0.02   0.008
  S20                     1460.50       0.00       0.00       0.00      11.25    1449.19    1460.43        1.49     1.06   1.000
  S21                     1460.50       0.00       0.00       0.00      11.25    1430.25    1441.49       23.90    17.19   0.987
  S22                     1460.50       0.00       0.00       0.00      11.25    1449.20    1460.44        0.48     0.34   1.000
  S23                     1460.50       0.00       0.00       0.00      11.25    1449.25    1460.50        0.57     0.40   1.000
  S24                     1460.50       0.00       0.00       0.00      11.25    1449.25    1460.50        0.72     0.51   1.000
  S25                     1460.50       0.00       0.00       0.00      11.25    1449.25    1460.50        0.86     0.61   1.000
  S26                     1460.50       0.00       0.00       0.00      11.25    1449.25    1460.50        1.01     0.72   1.000
  S27                     1460.50       0.00       0.00       0.00      11.25    1449.69    1460.93       12.14     8.62   1.000
  S28                     1460.50       0.00       0.00       0.00      11.25    1433.50    1444.74       12.83     9.21   0.989
  S29                     1460.50       0.00       0.00       0.00      11.25    1449.18    1460.43        1.34     0.95   1.000
  S30                     1460.50       0.00       0.00       0.00      11.25    1271.94    1283.18       81.74    62.55   0.879
  S31                     1460.50       0.00       0.00       0.00      11.68    1448.82    1460.50       19.79    14.06   1.000
  S32                     1460.50       0.00       0.00       0.00      11.68    1448.82    1460.50        6.09     4.33   1.000
  S33                     1460.50       0.00       0.00       0.00      13.73    1446.77    1460.50        4.54     3.23   1.000
  S34                     1460.50       0.00       0.00       0.00      13.73    1446.77    1460.50        4.81     3.41   1.000
  S35                     1460.50       0.00       0.00       0.00      13.29    1447.21    1460.50        5.87     4.17   1.000
  S36                     1460.50       0.00       0.00       0.00      13.29    1447.21    1460.50        2.41     1.71   1.000
  S37                     1460.50       0.00       0.00       0.00      13.29    1447.21    1460.50        5.26     3.73   1.000
  S38                     1460.50       0.00       0.00       0.00      13.29    1447.21    1460.50        0.23     0.17   1.000
  S39                     1460.50       0.00       0.00       0.00      13.29    1447.21    1460.50        5.99     4.25   1.000
  S40                     1460.50       0.00       0.00       0.00      13.29    1447.21    1460.50        2.06     1.46   1.000
  S41                     1460.50       0.00       0.00       0.00      13.29    1447.21    1460.50        3.32     2.35   1.000
  S42                     1460.50       0.00       0.00       0.00      13.29    1447.21    1460.50        4.62     3.28   1.000
  S43                     1460.50       0.00       0.00       0.00      13.29    1447.21    1460.50       10.52     7.47   1.000
  S44                     1460.50       0.00       0.00       0.00      13.29    1447.21    1460.50        7.62     5.41   1.000
  S45                     1460.50       0.00       0.00       0.00      13.29    1447.21    1460.50        0.77     0.55   1.000
  S46                     1460.50       0.00       0.00       0.00      13.29    1447.21    1460.50        7.07     5.02   1.000
  S47                     1460.50       0.00       0.00       0.00      13.29    1447.21    1460.50       14.28    10.14   1.000
  S48                     1460.50       0.00       0.00       0.00      13.29    1447.21    1460.50       16.50    11.72   1.000
  S49                     1460.50       0.00       0.00       0.00      13.29    1447.21    1460.50       10.03     7.13   1.000
  S50                     1460.50       0.00       0.00       0.00      13.29    1447.21    1460.50        8.27     5.87   1.000
  S51                     1460.50       0.00       0.00       0.00      13.29    1447.21    1460.50        4.88     3.46   1.000
  S52                     1460.50       0.00       0.00       0.00      13.29    1447.21    1460.50       12.93     9.18   1.000
  S53                     1460.50       0.00       0.00       0.00      13.29    1432.75    1446.04       17.61    12.63   0.990
  S54                     1460.50       0.00       0.00       0.00      13.29    1448.39    1461.68        6.68     4.74   1.001
  S55                     1460.50       0.00       0.00       0.00      13.29    1447.21    1460.50        0.55     0.39   1.000
  S56                     1460.50       0.00       0.00       0.00      13.29    1447.10    1460.39        0.55     0.39   1.000
  S57                     1460.50       0.00       0.00       0.00      13.29    1447.21    1460.50        7.55     5.36   1.000
  S58                     1460.50       0.00       0.00       0.00      13.29    1447.21    1460.50        9.70     6.89   1.000
  S59                     1460.50       0.00       0.00       0.00      13.29    1447.21    1460.50        9.42     6.69   1.000
  S60                     1460.50       0.00       0.00       0.00      11.25    1450.33    1461.58        5.74     4.08   1.001
  S61                     1460.50       0.00       0.00       0.00      11.25       0.00      11.25        0.04     0.03   0.008
  S62                     1460.50       0.00       0.00       0.00      11.25    1242.24    1253.49       67.17    51.45   0.858
  S63                     1460.50       0.00       0.00       0.00      11.25    1449.25    1460.50       13.73     9.75   1.000
  S64                     1460.50       0.00       0.00       0.00      11.25    1449.25    1460.50       37.17    26.40   1.000
  S65                     1460.50       0.00       0.00       0.00      11.24    1449.25    1460.50        5.93     4.21   1.000
  S66                     1460.50       0.00       0.00       0.00      11.25    1449.25    1460.50        9.57     6.79   1.000
  S67                     1460.50       0.00       0.00       0.00      11.25    1449.25    1460.50       17.88    12.70   1.000
  S68                     1460.50       0.00       0.00       0.00      11.25    1449.25    1460.50       20.96    14.88   1.000
  S69                     1460.50       0.00       0.00       0.00      11.25       0.00      11.25        0.28     0.20   0.008
  S70                     1460.50       0.00       0.00       0.00      11.25    1428.72    1439.96       37.68    27.13   0.986
  S71                     1460.50       0.00       0.00       0.00      13.29    1447.21    1460.50       21.48    15.26   1.000
  S72                     1460.50       0.00       0.00       0.00      11.25    1447.98    1459.22        7.24     5.14   0.999
  S73                     1460.50       0.00       0.00       0.00      11.24    1449.25    1460.50       30.61    21.74   1.000
  S74                     1460.50       0.00       0.00       0.00      11.25       0.00      11.25        0.07     0.05   0.008
  S75                     1460.50       0.00       0.00       0.00      11.25    1449.25    1460.50        0.98     0.69   1.000
  S76                     1460.50       0.00       0.00       0.00      11.25    1449.25    1460.50       19.29    13.70   1.000
  S77                     1460.50       0.00       0.00       0.00      11.25    1449.25    1460.50       15.61    11.09   1.000
  S78                     1460.50       0.00       0.00       0.00      11.25    1449.25    1460.50       11.32     8.04   1.000
  S79                     1460.50       0.00       0.00       0.00      13.29    1447.21    1460.50        9.92     7.04   1.000
  S80                     1460.50       0.00       0.00       0.00      11.25    1449.63    1460.88        4.03     2.86   1.000
  S81                     1460.50       0.00       0.00       0.00      11.25    1449.25    1460.50       16.52    11.73   1.000
  S82                     1460.50       0.00       0.00       0.00      11.25    1449.25    1460.50       16.12    11.45   1.000
  S83                     1460.50       0.00       0.00       0.00      11.25    1449.25    1460.50       10.37     7.36   1.000
  S84                     1460.50       0.00       0.00       0.00      13.29    1447.21    1460.50        6.78     4.81   1.000
  S85                     1460.50       0.00       0.00       0.00      13.29    1438.99    1452.28       17.95    12.82   0.994
  S86                     1460.50       0.00       0.00       0.00       0.00    1447.21    1447.21       16.74    11.89   0.991
  S87                     1460.50       0.00       0.00       0.00      13.29    1447.21    1460.50       18.14    12.88   1.000
  S88                     1460.50       0.00       0.00       0.00      13.29    1447.21    1460.50        3.27     2.32   1.000
  S89                     1460.50       0.00       0.00       0.00      13.29    1447.21    1460.50       14.77    10.49   1.000
  S90                     1460.50       0.00       0.00       0.00       0.00    1447.21    1447.21        7.11     5.05   0.991
  S91                     1460.50       0.00       0.00       0.00      13.29    1447.21    1460.50        2.41     1.71   1.000
  
  
  ******************
  Node Depth Summary
  ******************
  
  ---------------------------------------------------------------------------------
                                 Average  Maximum  Maximum  Time of Max    Reported
                                   Depth    Depth      HGL   Occurrence   Max Depth
  Node                 Type       Meters   Meters   Meters  days hr:min      Meters
  ---------------------------------------------------------------------------------
  J7                   JUNCTION     2.48     2.50     2.50     0  00:05        2.50
  J13                  JUNCTION     2.48     2.50     2.50     0  00:05        2.50
  J19                  JUNCTION     2.48     2.50     2.50     0  00:05        2.50
  J25                  JUNCTION     2.48     2.50     2.50     0  00:05        2.50
  J1                   JUNCTION     2.48     2.50     2.50     0  00:05        2.50
  J2                   JUNCTION     2.48     2.50     2.50     0  00:05        2.50
  J3                   JUNCTION     2.48     2.50     2.50     0  00:05        2.50
  J4                   JUNCTION     2.48     2.50     2.50     0  00:05        2.50
  J5                   JUNCTION     2.48     2.50     2.50     0  00:05        2.50
  J6                   JUNCTION     2.48     2.50     2.50     0  00:05        2.50
  J8                   JUNCTION     2.48     2.50     2.50     0  00:05        2.50
  J9                   JUNCTION     2.48     2.50     2.50     0  00:05        2.50
  J10                  JUNCTION     2.48     2.50     2.50     0  00:05        2.50
  J11                  JUNCTION     2.48     2.50     2.50     0  00:05        2.50
  J12                  JUNCTION     2.48     2.50     2.50     0  00:05        2.50
  J14                  JUNCTION     2.48     2.50     2.50     0  00:05        2.50
  J15                  JUNCTION     2.48     2.50     2.50     0  00:05        2.50
  J16                  JUNCTION     2.48     2.50     2.50     0  00:05        2.50
  J17                  JUNCTION     2.48     2.50     2.50     0  00:05        2.50
  J18                  JUNCTION     2.48     2.50     2.50     0  00:05        2.50
  J20                  JUNCTION     2.48     2.50     2.50     0  00:05        2.50
  J21                  JUNCTION     2.48     2.50     2.50     0  00:05        2.50
  J22                  JUNCTION     2.48     2.50     2.50     0  00:05        2.50
  J23                  JUNCTION     2.48     2.50     2.50     0  00:05        2.50
  J24                  JUNCTION     2.48     2.50     2.50     0  00:05        2.50
  J26                  JUNCTION     2.48     2.50     2.50     0  00:05        2.50
  J27                  JUNCTION     2.48     2.50     2.50     0  00:05        2.50
  J29                  JUNCTION     2.48     2.50     2.50     0  00:05        2.50
  J30                  JUNCTION     2.48     2.50     2.50     0  00:05        2.50
  J31                  JUNCTION     2.48     2.50     2.50     0  00:05        2.50
  J33                  JUNCTION     2.48     2.50     2.50     0  00:05        2.50
  J32                  JUNCTION     2.48     2.50     2.50     0  00:05        2.50
  J28                  JUNCTION     2.48     2.50     2.50     0  00:05        2.50
  OF                   OUTFALL      1.36     1.41     1.41     0  00:05        1.37
  
  
  *******************
  Node Inflow Summary
  *******************
  
  -------------------------------------------------------------------------------------------------
                                  Maximum  Maximum                  Lateral       Total        Flow
                                  Lateral    Total  Time of Max      Inflow      Inflow     Balance
                                   Inflow   Inflow   Occurrence      Volume      Volume       Error
  Node                 Type           CMS      CMS  days hr:min    10^6 ltr    10^6 ltr     Percent
  -------------------------------------------------------------------------------------------------
  J7                   JUNCTION    68.635   68.854     0  00:20        83.1        83.7       1.362
  J13                  JUNCTION     5.918    5.918     0  00:20        7.65        7.65       2.520
  J19                  JUNCTION   280.446  280.446     0  00:20         363         363       2.885
  J25                  JUNCTION    34.288   34.582     0  00:20        41.2          42       1.832
  J1                   JUNCTION    23.541   23.541     0  00:20        30.5        30.5       2.969
  J2                   JUNCTION    17.686   17.944     0  00:15        22.9        23.4       2.308
  J3                   JUNCTION     0.788   13.430     0  00:05        1.02        6.74      16.756
  J4                   JUNCTION    51.211   52.013     0  00:15        66.3        68.1       2.455
  J5                   JUNCTION    42.342   42.344     0  00:15        54.8        54.8       1.943
  J6                   JUNCTION    18.526   18.526     0  00:20          24          24       2.805
  J8                   JUNCTION    28.505   28.505     0  00:20        36.9        36.9       3.071
  J9                   JUNCTION    12.819   12.910     0  00:20        16.5        16.7       1.901
  J10                  JUNCTION    19.127   19.127     0  00:15        24.7        24.7       2.227
  J11                  JUNCTION    20.549   21.217     0  00:15        26.6          28       2.476
  J12                  JUNCTION    21.741   22.387     0  00:15        28.1        29.5       2.625
  J14                  JUNCTION    18.422   18.422     0  00:15        23.8        23.8       3.078
  J15                  JUNCTION    26.364   26.364     0  00:20        33.9        33.9       2.650
  J16                  JUNCTION    15.258   16.455     0  00:15        19.7        22.4       2.706
  J17                  JUNCTION     0.198    6.873     0  00:05       0.257        4.46      12.492
  J18                  JUNCTION     0.695    2.872     0  00:05       0.899        2.38       9.075
  J20                  JUNCTION    51.499   51.499     0  00:20          66          66       2.874
  J21                  JUNCTION    17.004   17.004     0  00:20          22          22       3.078
  J22                  JUNCTION    34.909   34.909     0  00:20        44.6        44.6       2.382
  J23                  JUNCTION    18.318   18.645     0  00:15        23.6        24.6       2.543
  J24                  JUNCTION     2.415    5.639     0  00:05        3.12         5.1       8.886
  J26                  JUNCTION    15.020   15.020     0  00:15        19.4        19.4       3.078
  J27                  JUNCTION    13.173   14.015     0  00:15          17          19       2.911
  J29                  JUNCTION    21.607   22.321     0  00:15          28        29.5       2.757
  J30                  JUNCTION     0.000    9.474     0  00:05           0        4.72      16.812
  J31                  JUNCTION    62.550   62.861     0  00:20        74.5        75.4       1.336
  J33                  JUNCTION    21.259   21.259     0  00:20        27.5        27.5       3.070
  J32                  JUNCTION     9.699    9.699     0  00:15        12.5        12.5       2.625
  J28                  JUNCTION    15.507   16.386     0  00:15        20.1        22.2       2.138
  OF                   OUTFALL      0.000    7.967     0  00:05           0        16.6       0.000
  
  
  **********************
  Node Surcharge Summary
  **********************
  
  Surcharging occurs when water rises above the top of the highest conduit.
  ---------------------------------------------------------------------
                                               Max. Height   Min. Depth
                                   Hours       Above Crown    Below Rim
  Node                 Type      Surcharged         Meters       Meters
  ---------------------------------------------------------------------
  J7                   JUNCTION        0.67          0.850        0.000
  J13                  JUNCTION        0.67          0.850        0.000
  J19                  JUNCTION        0.67          0.850        0.000
  J25                  JUNCTION        0.67          0.850        0.000
  J1                   JUNCTION        0.67          0.850        0.000
  J2                   JUNCTION        0.67          0.850        0.000
  J3                   JUNCTION        0.67          0.850        0.000
  J4                   JUNCTION        0.67          0.850        0.000
  J5                   JUNCTION        0.67          0.850        0.000
  J6                   JUNCTION        0.67          0.850        0.000
  J8                   JUNCTION        0.67          0.850        0.000
  J9                   JUNCTION        0.67          0.850        0.000
  J10                  JUNCTION        0.67          0.850        0.000
  J11                  JUNCTION        0.67          0.850        0.000
  J12                  JUNCTION        0.67          0.850        0.000
  J14                  JUNCTION        0.67          0.850        0.000
  J15                  JUNCTION        0.67          0.850        0.000
  J16                  JUNCTION        0.67          0.850        0.000
  J17                  JUNCTION        0.67          0.850        0.000
  J18                  JUNCTION        0.67          0.850        0.000
  J20                  JUNCTION        0.67          0.850        0.000
  J21                  JUNCTION        0.67          0.850        0.000
  J22                  JUNCTION        0.67          0.850        0.000
  J23                  JUNCTION        0.67          0.850        0.000
  J24                  JUNCTION        0.67          0.850        0.000
  J26                  JUNCTION        0.67          0.850        0.000
  J27                  JUNCTION        0.67          0.850        0.000
  J29                  JUNCTION        0.67          0.850        0.000
  J30                  JUNCTION        0.67          0.850        0.000
  J31                  JUNCTION        0.67          0.850        0.000
  J33                  JUNCTION        0.67          0.850        0.000
  J32                  JUNCTION        0.67          0.850        0.000
  J28                  JUNCTION        0.67          0.850        0.000
  
  
  *********************
  Node Flooding Summary
  *********************
  
  Flooding refers to all water that overflows a node, whether it ponds or not.
  --------------------------------------------------------------------------
                                                             Total   Maximum
                                 Maximum   Time of Max       Flood    Ponded
                        Hours       Rate    Occurrence      Volume     Depth
  Node                 Flooded       CMS   days hr:min    10^6 ltr    Meters
  --------------------------------------------------------------------------
  J7                      0.67    68.326      0  00:20      81.686     0.000
  J13                     0.67     5.698      0  00:20       7.106     0.000
  J19                     0.67   273.094      0  00:20     346.082     0.000
  J25                     0.67    34.514      0  00:20      41.993     0.000
  J1                      0.67    23.325      0  00:20      29.926     0.000
  J2                      0.67    17.256      0  00:20      21.414     0.000
  J3                      0.67    12.559      0  00:05       6.735     0.000
  J4                      0.67    51.124      0  00:20      64.915     0.000
  J5                      0.67    41.050      0  00:20      50.084     0.000
  J6                      0.67    18.235      0  00:20      23.170     0.000
  J8                      0.67    28.474      0  00:20      36.812     0.000
  J9                      0.67    12.545      0  00:20      15.387     0.000
  J10                     0.67    18.208      0  00:20      22.175     0.000
  J11                     0.67    20.476      0  00:20      25.984     0.000
  J12                     0.67    21.883      0  00:20      28.059     0.000
  J14                     0.67    18.422      0  00:15      23.836     0.000
  J15                     0.67    26.018      0  00:20      32.933     0.000
  J16                     0.67    15.907      0  00:15      20.810     0.000
  J17                     0.67     6.622      0  00:05       4.465     0.000
  J18                     0.67     2.624      0  00:05       2.127     0.000
  J20                     0.67    51.492      0  00:20      66.025     0.000
  J21                     0.67    17.004      0  00:20      22.002     0.000
  J22                     0.67    34.285      0  00:20      42.830     0.000
  J23                     0.67    18.028      0  00:20      22.850     0.000
  J24                     0.67     5.359      0  00:05       5.100     0.000
  J26                     0.67    15.020      0  00:15      19.434     0.000
  J27                     0.67    13.510      0  00:15      17.711     0.000
  J29                     0.67    21.549      0  00:20      27.661     0.000
  J30                     0.67     8.942      0  00:05       4.725     0.000
  J31                     0.67    62.356      0  00:20      73.946     0.000
  J33                     0.67    21.259      0  00:20      27.516     0.000
  J32                     0.67     9.423      0  00:20      11.805     0.000
  J28                     0.67    15.800      0  00:15      20.137     0.000
  
  
  ***********************
  Outfall Loading Summary
  ***********************
  
  -----------------------------------------------------------
                         Flow       Avg       Max       Total
                         Freq      Flow      Flow      Volume
  Outfall Node           Pcnt       CMS       CMS    10^6 ltr
  -----------------------------------------------------------
  OF                   100.00     7.312     7.967      16.641
  -----------------------------------------------------------
  System               100.00     7.312     7.967      16.641
  
  
  ********************
  Link Flow Summary
  ********************
  
  -----------------------------------------------------------------------------
                                 Maximum  Time of Max   Maximum    Max/    Max/
                                  |Flow|   Occurrence   |Veloc|    Full    Full
  Link                 Type          CMS  days hr:min     m/sec    Flow   Depth
  -----------------------------------------------------------------------------
  P1                   PUMP        0.000     0  00:00                          
  C23                  CONDUIT     0.030     0  00:05      0.01    0.26    1.00
  C24                  CONDUIT     0.981     0  00:05      0.46    8.50    1.00
  C25                  CONDUIT     0.035     0  00:05      0.02    0.28    1.00
  C26                  CONDUIT     0.762     0  00:05      0.36    5.96    1.00
  C27                  CONDUIT     0.033     0  00:05      0.02    0.27    1.00
  C28                  CONDUIT     2.049     0  00:05      0.96   14.12    1.00
  C29                  CONDUIT     0.426     0  00:05      0.20    3.00    1.00
  C30                  CONDUIT     0.975     0  00:05      0.46    8.57    1.00
  C31                  CONDUIT     0.610     0  00:05      0.29    5.34    1.00
  C32                  CONDUIT     4.852     0  00:05      2.27   31.36    1.00
  C33                  CONDUIT     6.101     0  00:05      2.85   35.70    1.00
  C34                  CONDUIT     1.090     0  00:05      0.51    8.68    1.00
  C35                  CONDUIT     0.002     0  00:05      0.00    0.03    1.00
  C36                  CONDUIT     0.838     0  00:05      0.39    7.90    1.00
  C37                  CONDUIT     0.902     0  00:05      0.42    6.19    1.00
  C38                  CONDUIT     1.680     0  00:05      0.79   11.71    1.00
  C39                  CONDUIT     2.108     0  00:05      0.99   13.36    1.00
  C40                  CONDUIT     0.000     0  00:00      0.00    0.00    1.00
  C41                  CONDUIT     0.000     0  00:00      0.00    0.00    1.00
  C43                  CONDUIT     0.000     0  00:00      0.00    0.00    1.00
  C44                  CONDUIT     0.838     0  00:05      0.39    7.15    1.00
  C45                  CONDUIT     5.449     0  00:05      2.55   46.75    1.00
  C46                  CONDUIT     2.700     0  00:05      1.26   22.37    1.00
  C48                  CONDUIT     0.000     0  00:05      0.00    0.00    1.00
  C42                  CONDUIT     1.325     0  00:05      0.62   10.51    1.00
  C50                  CONDUIT     0.739     0  00:05      0.35    7.14    1.00
  C49                  CONDUIT     0.857     0  00:05      0.40    7.48    1.00
  C01                  CONDUIT     0.000     0  00:00      0.00    0.00    1.00
  C02                  CONDUIT     0.000     0  00:00      0.00    0.00    1.00
  C03                  CONDUIT     1.108     0  00:05      0.52    8.85    1.00
  C04                  CONDUIT     0.900     0  00:05      0.42    7.08    1.00
  C05                  CONDUIT     0.000     0  00:05      0.00    0.00    1.00
  C06                  CONDUIT     0.000     0  00:00      0.00    0.00    1.00
  C07                  CONDUIT     0.000     0  00:00      0.00    0.00    1.00
  C08                  CONDUIT     0.000     0  00:00      0.00    0.00    1.00
  C09                  CONDUIT     0.965     0  00:05      0.45    8.45    1.00
  C10                  CONDUIT     1.112     0  00:05      0.52    8.87    1.00
  C11                  CONDUIT     0.000     0  00:00      0.00    0.00    1.00
  C12                  CONDUIT     1.026     0  00:05      0.48    8.84    1.00
  C13                  CONDUIT     0.017     0  00:05      0.01    0.15    1.00
  C14                  CONDUIT     3.074     0  00:05      1.44   24.42    1.00
  C15                  CONDUIT     0.153     0  00:05      0.07    1.21    1.00
  C16                  CONDUIT     4.505     0  00:05      2.11   39.55    1.00
  C17                  CONDUIT     2.528     0  00:05      1.18   22.31    1.00
  C18                  CONDUIT     0.000     0  00:00      0.00    0.00    1.00
  C19                  CONDUIT     0.439     0  00:05      0.21    3.49    1.00
  C20                  CONDUIT     2.528     0  00:05      1.18   22.51    1.00
  C21                  CONDUIT     0.000     0  00:05      0.00    0.00    1.00
  C22                  CONDUIT     0.485     0  00:05      0.23    3.83    1.00
  C47                  CONDUIT     1.079     0  00:05      0.50   11.09    1.00
  Cout                 CONDUIT     7.967     0  00:05      3.85   62.91    0.93
  
  
  ***************************
  Flow Classification Summary
  ***************************
  
  -------------------------------------------------------------------------------------
                      Adjusted    ---------- Fraction of Time in Flow Class ---------- 
                       /Actual         Up    Down  Sub   Sup   Up    Down  Norm  Inlet 
  Conduit               Length    Dry  Dry   Dry   Crit  Crit  Crit  Crit  Ltd   Ctrl  
  -------------------------------------------------------------------------------------
  C23                     1.00   0.00  0.00  0.00  1.00  0.00  0.00  0.00  0.00  0.00
  C24                     1.00   0.00  0.00  0.00  1.00  0.00  0.00  0.00  0.00  0.00
  C25                     1.00   0.00  0.00  0.00  1.00  0.00  0.00  0.00  0.00  0.00
  C26                     1.00   0.00  0.00  0.00  1.00  0.00  0.00  0.00  0.00  0.00
  C27                     1.00   0.00  0.00  0.00  1.00  0.00  0.00  0.00  0.00  0.00
  C28                     1.00   0.00  0.00  0.00  1.00  0.00  0.00  0.00  0.00  0.00
  C29                     1.00   0.00  0.00  0.00  1.00  0.00  0.00  0.00  0.00  0.00
  C30                     1.00   0.00  0.00  0.00  1.00  0.00  0.00  0.00  0.00  0.00
  C31                     1.00   0.00  0.00  0.00  1.00  0.00  0.00  0.00  0.00  0.00
  C32                     1.00   0.00  0.00  0.00  1.00  0.00  0.00  0.00  0.00  0.00
  C33                     1.00   0.00  0.00  0.00  1.00  0.00  0.00  0.00  0.00  0.00
  C34                     1.00   0.00  0.00  0.00  1.00  0.00  0.00  0.00  0.00  0.00
  C35                     1.00   0.00  0.00  0.00  1.00  0.00  0.00  0.00  0.00  0.00
  C36                     1.00   0.00  0.00  0.00  1.00  0.00  0.00  0.00  0.00  0.00
  C37                     1.00   0.00  0.00  0.00  1.00  0.00  0.00  0.00  0.00  0.00
  C38                     1.00   0.00  0.00  0.00  1.00  0.00  0.00  0.00  0.00  0.00
  C39                     1.00   0.00  0.00  0.00  1.00  0.00  0.00  0.00  0.00  0.00
  C40                     1.00   0.00  0.00  0.00  1.00  0.00  0.00  0.00  0.00  0.00
  C41                     1.00   0.00  0.00  0.00  1.00  0.00  0.00  0.00  0.00  0.00
  C43                     1.00   0.00  0.00  0.00  1.00  0.00  0.00  0.00  0.00  0.00
  C44                     1.00   0.00  0.00  0.00  1.00  0.00  0.00  0.00  0.00  0.00
  C45                     1.00   0.00  0.00  0.00  1.00  0.00  0.00  0.00  0.00  0.00
  C46                     1.00   0.00  0.00  0.00  1.00  0.00  0.00  0.00  0.00  0.00
  C48                     1.00   0.00  0.00  0.00  1.00  0.00  0.00  0.00  0.00  0.00
  C42                     1.00   0.00  0.00  0.00  1.00  0.00  0.00  0.00  0.00  0.00
  C50                     1.00   0.00  0.00  0.00  1.00  0.00  0.00  0.00  0.00  0.00
  C49                     1.00   0.00  0.00  0.00  1.00  0.00  0.00  0.00  0.00  0.00
  C01                     1.00   0.00  0.00  0.00  1.00  0.00  0.00  0.00  0.00  0.00
  C02                     1.00   0.00  0.00  0.00  1.00  0.00  0.00  0.00  0.00  0.00
  C03                     1.00   0.00  0.00  0.00  1.00  0.00  0.00  0.00  0.00  0.00
  C04                     1.00   0.00  0.00  0.00  1.00  0.00  0.00  0.00  0.00  0.00
  C05                     1.00   0.00  0.00  0.00  1.00  0.00  0.00  0.00  0.00  0.00
  C06                     1.00   0.00  0.00  0.00  1.00  0.00  0.00  0.00  0.00  0.00
  C07                     1.00   0.00  0.00  0.00  1.00  0.00  0.00  0.00  0.00  0.00
  C08                     1.00   0.00  0.00  0.00  1.00  0.00  0.00  0.00  0.00  0.00
  C09                     1.00   0.00  0.00  0.00  1.00  0.00  0.00  0.00  0.00  0.00
  C10                     1.00   0.00  0.00  0.00  1.00  0.00  0.00  0.00  0.00  0.00
  C11                     1.00   0.00  0.00  0.00  1.00  0.00  0.00  0.00  0.00  0.00
  C12                     1.00   0.00  0.00  0.00  1.00  0.00  0.00  0.00  0.00  0.00
  C13                     1.00   0.00  0.00  0.00  1.00  0.00  0.00  0.00  0.00  0.00
  C14                     1.00   0.00  0.00  0.00  1.00  0.00  0.00  0.00  0.00  0.00
  C15                     1.00   0.00  0.00  0.00  1.00  0.00  0.00  0.00  0.00  0.00
  C16                     1.00   0.00  0.00  0.00  1.00  0.00  0.00  0.00  0.00  0.00
  C17                     1.00   0.00  0.00  0.00  1.00  0.00  0.00  0.00  0.00  0.00
  C18                     1.00   0.00  0.00  0.00  1.00  0.00  0.00  0.00  0.00  0.00
  C19                     1.00   0.00  0.00  0.00  1.00  0.00  0.00  0.00  0.00  0.00
  C20                     1.00   0.00  0.00  0.00  1.00  0.00  0.00  0.00  0.00  0.00
  C21                     1.00   0.00  0.00  0.00  1.00  0.00  0.00  0.00  0.00  0.00
  C22                     1.00   0.00  0.00  0.00  1.00  0.00  0.00  0.00  0.00  0.00
  C47                     1.00   0.00  0.00  0.00  1.00  0.00  0.00  0.00  0.00  0.00
  Cout                    1.00   0.00  0.00  0.00  1.00  0.00  0.00  0.00  0.00  0.00
  
  
  *************************
  Conduit Surcharge Summary
  *************************
  
  ----------------------------------------------------------------------------
                                                           Hours        Hours 
                         --------- Hours Full --------   Above Full   Capacity
  Conduit                Both Ends  Upstream  Dnstream   Normal Flow   Limited
  ----------------------------------------------------------------------------
  C23                         0.67      0.67      0.67      0.01         0.01
  C24                         0.67      0.67      0.67      0.67         0.01
  C25                         0.67      0.67      0.67      0.01         0.01
  C26                         0.67      0.67      0.67      0.67         0.01
  C27                         0.67      0.67      0.67      0.01         0.01
  C28                         0.67      0.67      0.67      0.67         0.01
  C29                         0.67      0.67      0.67      0.60         0.01
  C30                         0.67      0.67      0.67      0.67         0.01
  C31                         0.67      0.67      0.67      0.67         0.01
  C32                         0.67      0.67      0.67      0.67         0.01
  C33                         0.67      0.67      0.67      0.67         0.01
  C34                         0.67      0.67      0.67      0.67         0.01
  C35                         0.67      0.67      0.67      0.01         0.01
  C36                         0.67      0.67      0.67      0.67         0.01
  C37                         0.67      0.67      0.67      0.67         0.01
  C38                         0.67      0.67      0.67      0.67         0.01
  C39                         0.67      0.67      0.67      0.67         0.01
  C40                         0.67      0.67      0.67      0.01         0.01
  C41                         0.67      0.67      0.67      0.01         0.01
  C43                         0.67      0.67      0.67      0.01         0.01
  C44                         0.67      0.67      0.67      0.67         0.01
  C45                         0.67      0.67      0.67      0.67         0.01
  C46                         0.67      0.67      0.67      0.67         0.01
  C48                         0.67      0.67      0.67      0.01         0.01
  C42                         0.67      0.67      0.67      0.67         0.01
  C50                         0.67      0.67      0.67      0.67         0.01
  C49                         0.67      0.67      0.67      0.67         0.01
  C01                         0.67      0.67      0.67      0.01         0.01
  C02                         0.67      0.67      0.67      0.01         0.01
  C03                         0.67      0.67      0.67      0.67         0.01
  C04                         0.67      0.67      0.67      0.67         0.01
  C05                         0.67      0.67      0.67      0.01         0.01
  C06                         0.67      0.67      0.67      0.01         0.01
  C07                         0.67      0.67      0.67      0.01         0.01
  C08                         0.67      0.67      0.67      0.01         0.01
  C09                         0.67      0.67      0.67      0.67         0.01
  C10                         0.67      0.67      0.67      0.67         0.01
  C11                         0.67      0.67      0.67      0.01         0.01
  C12                         0.67      0.67      0.67      0.67         0.01
  C13                         0.67      0.67      0.67      0.01         0.01
  C14                         0.67      0.67      0.67      0.67         0.01
  C15                         0.67      0.67      0.67      0.23         0.01
  C16                         0.67      0.67      0.67      0.67         0.01
  C17                         0.67      0.67      0.67      0.67         0.01
  C18                         0.67      0.67      0.67      0.01         0.01
  C19                         0.67      0.67      0.67      0.67         0.01
  C20                         0.67      0.67      0.67      0.67         0.01
  C21                         0.67      0.67      0.67      0.01         0.01
  C22                         0.67      0.67      0.67      0.67         0.01
  C47                         0.67      0.67      0.67      0.67         0.01
  Cout                        0.01      0.67      0.01      0.67         0.01
  
  
  ***************
  Pumping Summary
  ***************
  
  ---------------------------------------------------------------------------------------------------------
                                                  Min       Avg       Max     Total     Power    % Time Off
                        Percent   Number of      Flow      Flow      Flow    Volume     Usage    Pump Curve
  Pump                 Utilized   Start-Ups       CMS       CMS       CMS  10^6 ltr     Kw-hr    Low   High
  ---------------------------------------------------------------------------------------------------------
  P1                       0.00           0      0.00      0.00      0.00     0.000      0.00    0.0    0.0
  

  Analysis begun on:  Thu Nov 21 12:16:09 2024
  Analysis ended on:  Thu Nov 21 12:16:09 2024
  Total elapsed time: < 1 sec