
  EPA STORM WATER MANAGEMENT MODEL - VERSION 5.2 (Build 5.2.4)
  PYSWMM TOOLKIT API - VERSION v1.0 (2023-11-27)
  ------------------------------------------------------------

  WARNING 04: minimum elevation drop used for Conduit C23
  WARNING 04: minimum elevation drop used for Conduit C24
  WARNING 04: minimum elevation drop used for Conduit C25
  WARNING 04: minimum elevation drop used for Conduit C26
  WARNING 04: minimum elevation drop used for Conduit C27
  WARNING 04: minimum elevation drop used for Conduit C28
  WARNING 04: minimum elevation drop used for Conduit C29
  WARNING 04: minimum elevation drop used for Conduit C30
  WARNING 04: minimum elevation drop used for Conduit C31
  WARNING 04: minimum elevation drop used for Conduit C32
  WARNING 04: minimum elevation drop used for Conduit C33
  WARNING 04: minimum elevation drop used for Conduit C34
  WARNING 04: minimum elevation drop used for Conduit C35
  WARNING 04: minimum elevation drop used for Conduit C36
  WARNING 04: minimum elevation drop used for Conduit C37
  WARNING 04: minimum elevation drop used for Conduit C38
  WARNING 04: minimum elevation drop used for Conduit C39
  WARNING 04: minimum elevation drop used for Conduit C40
  WARNING 04: minimum elevation drop used for Conduit C41
  WARNING 04: minimum elevation drop used for Conduit C43
  WARNING 04: minimum elevation drop used for Conduit C44
  WARNING 04: minimum elevation drop used for Conduit C45
  WARNING 04: minimum elevation drop used for Conduit C46
  WARNING 04: minimum elevation drop used for Conduit C48
  WARNING 04: minimum elevation drop used for Conduit C42
  WARNING 04: minimum elevation drop used for Conduit C50
  WARNING 04: minimum elevation drop used for Conduit C49
  WARNING 04: minimum elevation drop used for Conduit C01
  WARNING 04: minimum elevation drop used for Conduit C02
  WARNING 04: minimum elevation drop used for Conduit C03
  WARNING 04: minimum elevation drop used for Conduit C04
  WARNING 04: minimum elevation drop used for Conduit C05
  WARNING 04: minimum elevation drop used for Conduit C06
  WARNING 04: minimum elevation drop used for Conduit C07
  WARNING 04: minimum elevation drop used for Conduit C08
  WARNING 04: minimum elevation drop used for Conduit C09
  WARNING 04: minimum elevation drop used for Conduit C10
  WARNING 04: minimum elevation drop used for Conduit C11
  WARNING 04: minimum elevation drop used for Conduit C12
  WARNING 04: minimum elevation drop used for Conduit C13
  WARNING 04: minimum elevation drop used for Conduit C14
  WARNING 04: minimum elevation drop used for Conduit C15
  WARNING 04: minimum elevation drop used for Conduit C16
  WARNING 04: minimum elevation drop used for Conduit C17
  WARNING 04: minimum elevation drop used for Conduit C18
  WARNING 04: minimum elevation drop used for Conduit C19
  WARNING 04: minimum elevation drop used for Conduit C20
  WARNING 04: minimum elevation drop used for Conduit C21
  WARNING 04: minimum elevation drop used for Conduit C22
  WARNING 04: minimum elevation drop used for Conduit C47
  WARNING 04: minimum elevation drop used for Conduit Cout
  
  ****************
  Analysis Options
  ****************
  Flow Units ............... CMS
  Process Models:
    Rainfall/Runoff ........ YES
    RDII ................... NO
    Snowmelt ............... NO
    Groundwater ............ NO
    Flow Routing ........... YES
    Ponding Allowed ........ NO
    Water Quality .......... NO
  Infiltration Method ...... HORTON
  Flow Routing Method ...... DYNWAVE
  Surcharge Method ......... EXTRAN
  Starting Date ............ 09/02/2020 15:01:00
  Ending Date .............. 09/02/2020 15:41:00
  Antecedent Dry Days ...... 0.0
  Report Time Step ......... 00:10:00
  Wet Time Step ............ 00:05:00
  Dry Time Step ............ 01:00:00
  Routing Time Step ........ 300.00 sec
  Variable Time Step ....... YES
  Maximum Trials ........... 8
  Number of Threads ........ 1
  Head Tolerance ........... 0.001524 m
  
  
  *********************
  Rainfall File Summary
  *********************
  Station    First        Last         Recording   Periods    Periods    Periods
  ID         Date         Date         Frequency  w/Precip    Missing    Malfunc.
  -------------------------------------------------------------------------------
  25         09/02/2020   09/02/2020      10 min         5          0          0

  
  
  **************************        Volume         Depth
  Runoff Quantity Continuity     hectare-m            mm
  **************************     ---------       -------
  Total Precipitation ......       189.222      1892.300
  Evaporation Loss .........         0.000         0.000
  Infiltration Loss ........         0.000         0.000
  Surface Runoff ...........       179.152      1791.587
  Final Storage ............        12.907       129.072
  Continuity Error (%) .....        -1.499
  
  
  **************************        Volume        Volume
  Flow Routing Continuity        hectare-m      10^6 ltr
  **************************     ---------     ---------
  Dry Weather Inflow .......         0.000         0.000
  Wet Weather Inflow .......       168.421      1684.226
  Groundwater Inflow .......         0.000         0.000
  RDII Inflow ..............         0.000         0.000
  External Inflow ..........         0.000         0.000
  External Outflow .........         1.664        16.644
  Flooding Loss ............       161.182      1611.837
  Evaporation Loss .........         0.000         0.000
  Exfiltration Loss ........         0.000         0.000
  Initial Stored Volume ....         0.046         0.463
  Final Stored Volume ......         1.883        18.831
  Continuity Error (%) .....         2.219
  
  
  *************************
  Highest Continuity Errors
  *************************
  Node J30 (21.88%)
  Node J3 (17.74%)
  Node J17 (13.68%)
  Node J18 (12.15%)
  Node J24 (5.19%)
  
  
  ***************************
  Time-Step Critical Elements
  ***************************
  Link Cout (98.69%)
  
  
  ********************************
  Highest Flow Instability Indexes
  ********************************
  Link C24 (2)
  Link C31 (2)
  Link C33 (2)
  Link C34 (2)
  Link C46 (2)
  
  
  *********************************
  Most Frequent Nonconverging Nodes
  *********************************
  Convergence obtained at all time steps.
  
  
  *************************
  Routing Time Step Summary
  *************************
  Minimum Time Step           :     4.82 sec
  Average Time Step           :    15.69 sec
  Maximum Time Step           :   300.00 sec
  % of Time in Steady State   :     0.00
  Average Iterations per Step :     2.02
  % of Steps Not Converging   :     0.00
  Time Step Frequencies       :
     300.000 - 83.462 sec      :     0.66 %
     83.462 - 23.220 sec      :     0.00 %
     23.220 -  6.460 sec      :    98.68 %
      6.460 -  1.797 sec      :     0.66 %
      1.797 -  0.500 sec      :     0.00 %
  
  
  ***************************
  Subcatchment Runoff Summary
  ***************************
  
  ------------------------------------------------------------------------------------------------------------------------------
                            Total      Total      Total      Total     Imperv       Perv      Total       Total     Peak  Runoff
                           Precip      Runon       Evap      Infil     Runoff     Runoff     Runoff      Runoff   Runoff   Coeff
  Subcatchment                 mm         mm         mm         mm         mm         mm         mm    10^6 ltr      CMS
  ------------------------------------------------------------------------------------------------------------------------------
  S1                      1892.30       0.00       0.00       0.00      18.73    1873.57    1892.30      477.35   208.26   1.000
  S2                      1892.30       0.00       0.00       0.00      17.22    1874.64    1891.86       14.70     6.41   1.000
  S3                      1892.30       0.00       0.00       0.00      17.22    1875.08    1892.30        3.92     1.71   1.000
  S4                      1892.30       0.00       0.00       0.00      17.22    1875.08    1892.30        3.88     1.69   1.000
  S5                      1892.30       0.00       0.00       0.00      17.22    1875.08    1892.30        5.66     2.47   1.000
  S6                      1892.30       0.00       0.00       0.00      17.22    1875.08    1892.30       15.59     6.80   1.000
  S7                      1892.30       0.00       0.00       0.00      17.22    1875.08    1892.30        2.93     1.28   1.000
  S8                      1892.30       0.00       0.00       0.00      17.22    1875.08    1892.30        9.22     4.02   1.000
  S9                      1892.30       0.00       0.00       0.00      17.22    1875.08    1892.30       11.39     4.97   1.000
  S10                     1892.30       0.00       0.00       0.00       0.00    1875.08    1875.08        2.64     1.15   0.991
  S11                     1892.30       0.00       0.00       0.00      17.22    1827.32    1844.54       26.99    12.08   0.975
  S12                     1892.30       0.00       0.00       0.00      17.22    1875.08    1892.30       16.43     7.17   1.000
  S13                     1892.30       0.00       0.00       0.00       0.00    1875.08    1875.08       15.83     6.90   0.991
  S14                     1892.30       0.00       0.00       0.00      15.90    1876.40    1892.30       15.20     6.63   1.000
  S15                     1892.30       0.00       0.00       0.00      15.90    1876.40    1892.30       14.19     6.19   1.000
  S16                     1892.30       0.00       0.00       0.00      14.57    1871.27    1885.84       33.30    14.58   0.997
  S17                     1892.30       0.00       0.00       0.00      14.57    1737.81    1752.38       59.67    27.96   0.926
  S18                     1892.30       0.00       0.00       0.00      14.57    1877.79    1892.36        2.44     1.07   1.000
  S19                     1892.30       0.00       0.00       0.00      14.57       0.00      14.57        0.03     0.02   0.008
  S20                     1892.30       0.00       0.00       0.00      14.57    1877.79    1892.36        1.93     0.84   1.000
  S21                     1892.30       0.00       0.00       0.00      14.57    1855.00    1869.57       31.00    13.69   0.988
  S22                     1892.30       0.00       0.00       0.00      14.57    1877.67    1892.24        0.62     0.27   1.000
  S23                     1892.30       0.00       0.00       0.00      14.57    1877.73    1892.30        0.74     0.32   1.000
  S24                     1892.30       0.00       0.00       0.00      14.57    1877.73    1892.30        0.93     0.40   1.000
  S25                     1892.30       0.00       0.00       0.00      14.57    1877.73    1892.30        1.12     0.49   1.000
  S26                     1892.30       0.00       0.00       0.00      14.57    1877.73    1892.30        1.31     0.57   1.000
  S27                     1892.30       0.00       0.00       0.00      14.57    1877.72    1892.29       15.73     6.86   1.000
  S28                     1892.30       0.00       0.00       0.00      14.57    1858.21    1872.78       16.63     7.33   0.990
  S29                     1892.30       0.00       0.00       0.00      14.57    1877.75    1892.32        1.74     0.76   1.000
  S30                     1892.30       0.00       0.00       0.00      14.57    1692.89    1707.46      108.77    51.85   0.902
  S31                     1892.30       0.00       0.00       0.00      15.14    1877.16    1892.30       25.64    11.19   1.000
  S32                     1892.30       0.00       0.00       0.00      15.14    1877.16    1892.30        7.89     3.44   1.000
  S33                     1892.30       0.00       0.00       0.00      17.79    1874.51    1892.30        5.89     2.57   1.000
  S34                     1892.30       0.00       0.00       0.00      17.79    1874.51    1892.30        6.23     2.72   1.000
  S35                     1892.30       0.00       0.00       0.00      17.22    1875.08    1892.30        7.61     3.32   1.000
  S36                     1892.30       0.00       0.00       0.00      17.22    1875.08    1892.30        3.12     1.36   1.000
  S37                     1892.30       0.00       0.00       0.00      17.22    1875.08    1892.30        6.81     2.97   1.000
  S38                     1892.30       0.00       0.00       0.00      17.22    1875.08    1892.30        0.30     0.13   1.000
  S39                     1892.30       0.00       0.00       0.00      17.22    1875.08    1892.30        7.76     3.38   1.000
  S40                     1892.30       0.00       0.00       0.00      17.22    1875.08    1892.30        2.67     1.16   1.000
  S41                     1892.30       0.00       0.00       0.00      17.22    1875.08    1892.30        4.30     1.87   1.000
  S42                     1892.30       0.00       0.00       0.00      17.22    1875.08    1892.30        5.98     2.61   1.000
  S43                     1892.30       0.00       0.00       0.00      17.22    1875.08    1892.30       13.62     5.94   1.000
  S44                     1892.30       0.00       0.00       0.00      17.22    1875.08    1892.30        9.88     4.31   1.000
  S45                     1892.30       0.00       0.00       0.00      17.22    1875.08    1892.30        1.00     0.44   1.000
  S46                     1892.30       0.00       0.00       0.00      17.22    1875.08    1892.30        9.16     4.00   1.000
  S47                     1892.30       0.00       0.00       0.00      17.22    1875.08    1892.30       18.51     8.07   1.000
  S48                     1892.30       0.00       0.00       0.00      17.22    1875.08    1892.30       21.38     9.33   1.000
  S49                     1892.30       0.00       0.00       0.00      17.22    1875.08    1892.30       13.00     5.67   1.000
  S50                     1892.30       0.00       0.00       0.00      17.22    1875.08    1892.30       10.71     4.67   1.000
  S51                     1892.30       0.00       0.00       0.00      17.22    1875.08    1892.30        6.32     2.76   1.000
  S52                     1892.30       0.00       0.00       0.00      17.22    1875.08    1892.30       16.75     7.31   1.000
  S53                     1892.30       0.00       0.00       0.00      17.22    1856.85    1874.07       22.83    10.06   0.990
  S54                     1892.30       0.00       0.00       0.00      17.22    1873.98    1891.20        8.64     3.77   0.999
  S55                     1892.30       0.00       0.00       0.00      17.22    1875.08    1892.30        0.72     0.31   1.000
  S56                     1892.30       0.00       0.00       0.00      17.22    1875.05    1892.27        0.72     0.31   1.000
  S57                     1892.30       0.00       0.00       0.00      17.22    1875.08    1892.30        9.78     4.27   1.000
  S58                     1892.30       0.00       0.00       0.00      17.22    1875.08    1892.30       12.56     5.48   1.000
  S59                     1892.30       0.00       0.00       0.00      17.22    1875.08    1892.30       12.21     5.33   1.000
  S60                     1892.30       0.00       0.00       0.00      14.57    1877.49    1892.06        7.44     3.24   1.000
  S61                     1892.30       0.00       0.00       0.00      14.57       0.00      14.57        0.05     0.02   0.008
  S62                     1892.30       0.00       0.00       0.00      14.57    1660.63    1675.20       89.77    43.20   0.885
  S63                     1892.30       0.00       0.00       0.00      14.57    1877.73    1892.30       17.79     7.76   1.000
  S64                     1892.30       0.00       0.00       0.00      14.57    1877.73    1892.30       48.16    21.01   1.000
  S65                     1892.30       0.00       0.00       0.00      14.57    1877.73    1892.30        7.68     3.35   1.000
  S66                     1892.30       0.00       0.00       0.00      14.57    1877.73    1892.30       12.39     5.41   1.000
  S67                     1892.30       0.00       0.00       0.00      14.57    1877.73    1892.30       23.16    10.11   1.000
  S68                     1892.30       0.00       0.00       0.00      14.57    1877.73    1892.30       27.15    11.85   1.000
  S69                     1892.30       0.00       0.00       0.00      14.57       0.00      14.57        0.36     0.16   0.008
  S70                     1892.30       0.00       0.00       0.00      14.57    1853.48    1868.06       48.89    21.60   0.987
  S71                     1892.30       0.00       0.00       0.00      17.22    1875.08    1892.30       27.84    12.14   1.000
  S72                     1892.30       0.00       0.00       0.00      14.57    1873.10    1887.67        9.36     4.09   0.998
  S73                     1892.30       0.00       0.00       0.00      14.57    1877.73    1892.30       39.66    17.30   1.000
  S74                     1892.30       0.00       0.00       0.00      14.57       0.00      14.57        0.10     0.04   0.008
  S75                     1892.30       0.00       0.00       0.00      14.57    1877.73    1892.30        1.27     0.55   1.000
  S76                     1892.30       0.00       0.00       0.00      14.57    1877.73    1892.30       25.00    10.91   1.000
  S77                     1892.30       0.00       0.00       0.00      14.57    1877.73    1892.30       20.23     8.83   1.000
  S78                     1892.30       0.00       0.00       0.00      14.57    1877.73    1892.30       14.67     6.40   1.000
  S79                     1892.30       0.00       0.00       0.00      17.22    1875.08    1892.30       12.85     5.61   1.000
  S80                     1892.30       0.00       0.00       0.00      14.57    1877.70    1892.27        5.22     2.28   1.000
  S81                     1892.30       0.00       0.00       0.00      14.57    1877.73    1892.30       21.40     9.34   1.000
  S82                     1892.30       0.00       0.00       0.00      14.57    1877.73    1892.30       20.89     9.11   1.000
  S83                     1892.30       0.00       0.00       0.00      14.57    1877.73    1892.30       13.44     5.86   1.000
  S84                     1892.30       0.00       0.00       0.00      17.22    1875.08    1892.30        8.78     3.83   1.000
  S85                     1892.30       0.00       0.00       0.00      17.22    1863.11    1880.33       23.24    10.20   0.994
  S86                     1892.30       0.00       0.00       0.00       0.00    1875.08    1875.08       21.69     9.47   0.991
  S87                     1892.30       0.00       0.00       0.00      17.22    1875.08    1892.30       23.50    10.25   1.000
  S88                     1892.30       0.00       0.00       0.00      17.22    1875.08    1892.30        4.24     1.85   1.000
  S89                     1892.30       0.00       0.00       0.00      17.22    1875.08    1892.30       19.13     8.35   1.000
  S90                     1892.30       0.00       0.00       0.00       0.00    1875.08    1875.08        9.21     4.02   0.991
  S91                     1892.30       0.00       0.00       0.00      17.22    1875.08    1892.30        3.12     1.36   1.000
  
  
  ******************
  Node Depth Summary
  ******************
  
  ---------------------------------------------------------------------------------
                                 Average  Maximum  Maximum  Time of Max    Reported
                                   Depth    Depth      HGL   Occurrence   Max Depth
  Node                 Type       Meters   Meters   Meters  days hr:min      Meters
  ---------------------------------------------------------------------------------
  J7                   JUNCTION     2.48     2.50     2.50     0  00:05        2.50
  J13                  JUNCTION     2.48     2.50     2.50     0  00:05        2.50
  J19                  JUNCTION     2.48     2.50     2.50     0  00:05        2.50
  J25                  JUNCTION     2.48     2.50     2.50     0  00:05        2.50
  J1                   JUNCTION     2.48     2.50     2.50     0  00:05        2.50
  J2                   JUNCTION     2.48     2.50     2.50     0  00:05        2.50
  J3                   JUNCTION     2.48     2.50     2.50     0  00:05        2.50
  J4                   JUNCTION     2.48     2.50     2.50     0  00:05        2.50
  J5                   JUNCTION     2.48     2.50     2.50     0  00:05        2.50
  J6                   JUNCTION     2.48     2.50     2.50     0  00:05        2.50
  J8                   JUNCTION     2.48     2.50     2.50     0  00:05        2.50
  J9                   JUNCTION     2.48     2.50     2.50     0  00:05        2.50
  J10                  JUNCTION     2.48     2.50     2.50     0  00:05        2.50
  J11                  JUNCTION     2.48     2.50     2.50     0  00:05        2.50
  J12                  JUNCTION     2.48     2.50     2.50     0  00:05        2.50
  J14                  JUNCTION     2.48     2.50     2.50     0  00:05        2.50
  J15                  JUNCTION     2.48     2.50     2.50     0  00:05        2.50
  J16                  JUNCTION     2.48     2.50     2.50     0  00:05        2.50
  J17                  JUNCTION     2.48     2.50     2.50     0  00:05        2.50
  J18                  JUNCTION     2.48     2.50     2.50     0  00:05        2.50
  J20                  JUNCTION     2.48     2.50     2.50     0  00:05        2.50
  J21                  JUNCTION     2.48     2.50     2.50     0  00:05        2.50
  J22                  JUNCTION     2.48     2.50     2.50     0  00:05        2.50
  J23                  JUNCTION     2.48     2.50     2.50     0  00:05        2.50
  J24                  JUNCTION     2.48     2.50     2.50     0  00:05        2.50
  J26                  JUNCTION     2.48     2.50     2.50     0  00:05        2.50
  J27                  JUNCTION     2.48     2.50     2.50     0  00:05        2.50
  J29                  JUNCTION     2.48     2.50     2.50     0  00:05        2.50
  J30                  JUNCTION     2.48     2.50     2.50     0  00:05        2.50
  J31                  JUNCTION     2.48     2.50     2.50     0  00:05        2.50
  J33                  JUNCTION     2.48     2.50     2.50     0  00:05        2.50
  J32                  JUNCTION     2.48     2.50     2.50     0  00:05        2.50
  J28                  JUNCTION     2.48     2.50     2.50     0  00:05        2.50
  OF                   OUTFALL      1.36     1.42     1.42     0  00:05        1.37
  
  
  *******************
  Node Inflow Summary
  *******************
  
  -------------------------------------------------------------------------------------------------
                                  Maximum  Maximum                  Lateral       Total        Flow
                                  Lateral    Total  Time of Max      Inflow      Inflow     Balance
                                   Inflow   Inflow   Occurrence      Volume      Volume       Error
  Node                 Type           CMS      CMS  days hr:min    10^6 ltr    10^6 ltr     Percent
  -------------------------------------------------------------------------------------------------
  J7                   JUNCTION    56.889   56.889     0  00:20         113         113       2.206
  J13                  JUNCTION     4.710    4.710     0  00:15        10.1        10.1       3.680
  J19                  JUNCTION   223.215  223.215     0  00:20         482         482       3.584
  J25                  JUNCTION    27.957   28.208     0  00:20        55.7        56.4       1.967
  J1                   JUNCTION    18.737   18.737     0  00:20        40.4        40.4       3.731
  J2                   JUNCTION    14.076   14.076     0  00:10        30.4        30.4       2.814
  J3                   JUNCTION     0.627   22.141     0  00:05        1.35        8.96      21.564
  J4                   JUNCTION    40.759   41.541     0  00:05          88          89       2.700
  J5                   JUNCTION    33.701   33.701     0  00:15        72.7        72.7       2.511
  J6                   JUNCTION    14.745   14.745     0  00:10        31.8        31.8       3.730
  J8                   JUNCTION    22.687   22.687     0  00:20          49          49       3.731
  J9                   JUNCTION    10.204   10.204     0  00:15        21.9        21.9       3.018
  J10                  JUNCTION    15.224   15.224     0  00:15        32.9        32.9       3.397
  J11                  JUNCTION    16.356   17.017     0  00:05        35.3        36.2       2.644
  J12                  JUNCTION    17.304   17.425     0  00:05        37.3        37.6       2.642
  J14                  JUNCTION    14.663   14.663     0  00:20        31.6        31.6       3.731
  J15                  JUNCTION    20.986   20.986     0  00:20        45.1        45.1       3.489
  J16                  JUNCTION    12.144   14.246     0  00:05        26.2        28.4       3.156
  J17                  JUNCTION     0.158   11.729     0  00:05       0.341        6.16      15.853
  J18                  JUNCTION     0.553    8.652     0  00:05        1.19        4.88      13.828
  J20                  JUNCTION    41.019   41.019     0  00:20        87.8        87.8       3.567
  J21                  JUNCTION    13.534   13.534     0  00:10        29.2        29.2       3.731
  J22                  JUNCTION    27.796   27.796     0  00:20        59.3        59.3       3.339
  J23                  JUNCTION    14.580   14.961     0  00:10        31.4          32       2.915
  J24                  JUNCTION     1.922    4.123     0  00:05        4.15        5.94       5.475
  J26                  JUNCTION    11.955   11.955     0  00:20        25.8        25.8       3.731
  J27                  JUNCTION    10.485   13.688     0  00:05        22.6        24.9       2.892
  J29                  JUNCTION    17.197   17.930     0  00:05        37.1        38.1       2.908
  J30                  JUNCTION     0.000   25.755     0  00:05           0        8.42      28.013
  J31                  JUNCTION    51.848   51.848     0  00:20         101         101       1.229
  J33                  JUNCTION    16.921   16.921     0  00:15        36.5        36.5       3.728
  J32                  JUNCTION     7.719    7.719     0  00:05        16.7        16.7       3.549
  J28                  JUNCTION    12.343   15.549     0  00:05        26.6        28.9       3.032
  OF                   OUTFALL      0.000    7.984     0  00:05           0        16.6       0.000
  
  
  **********************
  Node Surcharge Summary
  **********************
  
  Surcharging occurs when water rises above the top of the highest conduit.
  ---------------------------------------------------------------------
                                               Max. Height   Min. Depth
                                   Hours       Above Crown    Below Rim
  Node                 Type      Surcharged         Meters       Meters
  ---------------------------------------------------------------------
  J7                   JUNCTION        0.67          0.850        0.000
  J13                  JUNCTION        0.67          0.850        0.000
  J19                  JUNCTION        0.67          0.850        0.000
  J25                  JUNCTION        0.67          0.850        0.000
  J1                   JUNCTION        0.67          0.850        0.000
  J2                   JUNCTION        0.67          0.850        0.000
  J3                   JUNCTION        0.67          0.850        0.000
  J4                   JUNCTION        0.67          0.850        0.000
  J5                   JUNCTION        0.67          0.850        0.000
  J6                   JUNCTION        0.67          0.850        0.000
  J8                   JUNCTION        0.67          0.850        0.000
  J9                   JUNCTION        0.67          0.850        0.000
  J10                  JUNCTION        0.67          0.850        0.000
  J11                  JUNCTION        0.67          0.850        0.000
  J12                  JUNCTION        0.67          0.850        0.000
  J14                  JUNCTION        0.67          0.850        0.000
  J15                  JUNCTION        0.67          0.850        0.000
  J16                  JUNCTION        0.67          0.850        0.000
  J17                  JUNCTION        0.67          0.850        0.000
  J18                  JUNCTION        0.67          0.850        0.000
  J20                  JUNCTION        0.67          0.850        0.000
  J21                  JUNCTION        0.67          0.850        0.000
  J22                  JUNCTION        0.67          0.850        0.000
  J23                  JUNCTION        0.67          0.850        0.000
  J24                  JUNCTION        0.67          0.850        0.000
  J26                  JUNCTION        0.67          0.850        0.000
  J27                  JUNCTION        0.67          0.850        0.000
  J29                  JUNCTION        0.67          0.850        0.000
  J30                  JUNCTION        0.67          0.850        0.000
  J31                  JUNCTION        0.67          0.850        0.000
  J33                  JUNCTION        0.67          0.850        0.000
  J32                  JUNCTION        0.67          0.850        0.000
  J28                  JUNCTION        0.67          0.850        0.000
  
  
  *********************
  Node Flooding Summary
  *********************
  
  Flooding refers to all water that overflows a node, whether it ponds or not.
  --------------------------------------------------------------------------
                                                             Total   Maximum
                                 Maximum   Time of Max       Flood    Ponded
                        Hours       Rate    Occurrence      Volume     Depth
  Node                 Flooded       CMS   days hr:min    10^6 ltr    Meters
  --------------------------------------------------------------------------
  J7                      0.67    56.514      0  00:20     111.499     0.000
  J13                     0.67     4.710      0  00:15      10.142     0.000
  J19                     0.67   215.864      0  00:20     464.963     0.000
  J25                     0.67    27.569      0  00:20      54.233     0.000
  J1                      0.67    18.737      0  00:20      40.441     0.000
  J2                      0.67    13.367      0  00:20      27.955     0.000
  J3                      0.67    19.981      0  00:05       8.957     0.000
  J4                      0.67    40.545      0  00:20      84.985     0.000
  J5                      0.67    32.877      0  00:20      68.465     0.000
  J6                      0.67    14.745      0  00:10      31.825     0.000
  J8                      0.67    22.687      0  00:20      48.968     0.000
  J9                      0.67     9.858      0  00:20      20.733     0.000
  J10                     0.67    14.563      0  00:20      31.201     0.000
  J11                     0.67    16.226      0  00:20      33.836     0.000
  J12                     0.67    16.988      0  00:20      35.383     0.000
  J14                     0.67    14.663      0  00:20      31.648     0.000
  J15                     0.67    20.706      0  00:20      44.304     0.000
  J16                     0.67    12.618      0  00:13      26.741     0.000
  J17                     0.67    11.097      0  00:05       6.161     0.000
  J18                     0.67     7.736      0  00:05       4.351     0.000
  J20                     0.67    41.019      0  00:20      87.811     0.000
  J21                     0.67    13.534      0  00:10      29.212     0.000
  J22                     0.67    27.287      0  00:20      58.012     0.000
  J23                     0.67    14.191      0  00:20      29.820     0.000
  J24                     0.67     4.077      0  00:05       5.943     0.000
  J26                     0.67    11.955      0  00:20      25.803     0.000
  J27                     0.67    10.866      0  00:10      22.839     0.000
  J29                     0.67    16.884      0  00:20      35.481     0.000
  J30                     0.67    22.814      0  00:05       8.423     0.000
  J31                     0.67    51.392      0  00:20      97.865     0.000
  J33                     0.67    16.921      0  00:15      36.518     0.000
  J32                     0.67     7.515      0  00:20      16.164     0.000
  J28                     0.67    12.746      0  00:10      26.892     0.000
  
  
  ***********************
  Outfall Loading Summary
  ***********************
  
  -----------------------------------------------------------
                         Flow       Avg       Max       Total
                         Freq      Flow      Flow      Volume
  Outfall Node           Pcnt       CMS       CMS    10^6 ltr
  -----------------------------------------------------------
  OF                   100.00     7.312     7.984      16.644
  -----------------------------------------------------------
  System               100.00     7.312     7.984      16.644
  
  
  ********************
  Link Flow Summary
  ********************
  
  -----------------------------------------------------------------------------
                                 Maximum  Time of Max   Maximum    Max/    Max/
                                  |Flow|   Occurrence   |Veloc|    Full    Full
  Link                 Type          CMS  days hr:min     m/sec    Flow   Depth
  -----------------------------------------------------------------------------
  P1                   PUMP        0.000     0  00:00                          
  C23                  CONDUIT     0.000     0  00:00      0.00    0.00    1.00
  C24                  CONDUIT     0.672     0  00:05      0.31    5.82    1.00
  C25                  CONDUIT     0.000     0  00:00      0.00    0.00    1.00
  C26                  CONDUIT     0.368     0  00:05      0.17    2.88    1.00
  C27                  CONDUIT     0.000     0  00:00      0.00    0.00    1.00
  C28                  CONDUIT     1.598     0  00:05      0.75   11.02    1.00
  C29                  CONDUIT     0.000     0  00:00      0.00    0.00    1.00
  C30                  CONDUIT     0.352     0  00:05      0.16    3.09    1.00
  C31                  CONDUIT     0.294     0  00:05      0.14    2.57    1.00
  C32                  CONDUIT     4.721     0  00:05      2.21   30.52    1.00
  C33                  CONDUIT    11.974     0  00:05      5.60   70.06    1.00
  C34                  CONDUIT     0.429     0  00:05      0.20    3.41    1.00
  C35                  CONDUIT     0.000     0  00:05      0.00    0.00    1.00
  C36                  CONDUIT     0.000     0  00:05      0.00    0.00    1.00
  C37                  CONDUIT     1.608     0  00:05      0.75   11.04    1.00
  C38                  CONDUIT     2.017     0  00:05      0.94   14.06    1.00
  C39                  CONDUIT     4.818     0  00:05      2.25   30.54    1.00
  C40                  CONDUIT     0.000     0  00:00      0.00    0.00    1.00
  C41                  CONDUIT     0.000     0  00:00      0.00    0.00    1.00
  C43                  CONDUIT     0.000     0  00:00      0.00    0.00    1.00
  C44                  CONDUIT     0.350     0  00:05      0.16    2.99    1.00
  C45                  CONDUIT    10.912     0  00:05      5.10   93.63    1.00
  C46                  CONDUIT    11.699     0  00:05      5.47   96.95    1.00
  C48                  CONDUIT     0.000     0  00:05      0.00    0.00    1.00
  C42                  CONDUIT     3.143     0  00:05      1.47   24.92    1.00
  C50                  CONDUIT     0.383     0  00:05      0.18    3.70    1.00
  C49                  CONDUIT     1.203     0  00:05      0.56   10.50    1.00
  C01                  CONDUIT     0.000     0  00:00      0.00    0.00    1.00
  C02                  CONDUIT     0.000     0  00:00      0.00    0.00    1.00
  C03                  CONDUIT     0.554     0  00:05      0.26    4.42    1.00
  C04                  CONDUIT     0.591     0  00:05      0.28    4.65    1.00
  C05                  CONDUIT     0.591     0  00:05      0.28    4.71    1.00
  C06                  CONDUIT     0.000     0  00:00      0.00    0.00    1.00
  C07                  CONDUIT     0.000     0  00:00      0.00    0.00    1.00
  C08                  CONDUIT     0.000     0  00:00      0.00    0.00    1.00
  C09                  CONDUIT     0.661     0  00:05      0.31    5.79    1.00
  C10                  CONDUIT     0.769     0  00:05      0.36    6.13    1.00
  C11                  CONDUIT     0.000     0  00:00      0.00    0.00    1.00
  C12                  CONDUIT     2.718     0  00:05      1.27   23.41    1.00
  C13                  CONDUIT     2.717     0  00:05      1.27   23.64    1.00
  C14                  CONDUIT     3.172     0  00:05      1.48   25.20    1.00
  C15                  CONDUIT     0.421     0  00:05      0.20    3.35    1.00
  C16                  CONDUIT     1.610     0  00:05      0.75   14.14    1.00
  C17                  CONDUIT     5.260     0  00:05      2.46   46.42    1.00
  C18                  CONDUIT     0.000     0  00:00      0.00    0.00    1.00
  C19                  CONDUIT     0.000     0  00:00      0.00    0.00    1.00
  C20                  CONDUIT     5.382     0  00:05      2.52   47.92    1.00
  C21                  CONDUIT     0.000     0  00:05      0.00    0.00    1.00
  C22                  CONDUIT     0.121     0  00:05      0.06    0.95    1.00
  C47                  CONDUIT     0.000     0  00:00      0.00    0.00    1.00
  Cout                 CONDUIT     7.984     0  00:05      3.85   63.04    0.93
  
  
  ***************************
  Flow Classification Summary
  ***************************
  
  -------------------------------------------------------------------------------------
                      Adjusted    ---------- Fraction of Time in Flow Class ---------- 
                       /Actual         Up    Down  Sub   Sup   Up    Down  Norm  Inlet 
  Conduit               Length    Dry  Dry   Dry   Crit  Crit  Crit  Crit  Ltd   Ctrl  
  -------------------------------------------------------------------------------------
  C23                     1.00   0.00  0.00  0.00  1.00  0.00  0.00  0.00  0.00  0.00
  C24                     1.00   0.00  0.00  0.00  1.00  0.00  0.00  0.00  0.00  0.00
  C25                     1.00   0.00  0.00  0.00  1.00  0.00  0.00  0.00  0.00  0.00
  C26                     1.00   0.00  0.00  0.00  1.00  0.00  0.00  0.00  0.00  0.00
  C27                     1.00   0.00  0.00  0.00  1.00  0.00  0.00  0.00  0.00  0.00
  C28                     1.00   0.00  0.00  0.00  1.00  0.00  0.00  0.00  0.00  0.00
  C29                     1.00   0.00  0.00  0.00  1.00  0.00  0.00  0.00  0.00  0.00
  C30                     1.00   0.00  0.00  0.00  1.00  0.00  0.00  0.00  0.00  0.00
  C31                     1.00   0.00  0.00  0.00  1.00  0.00  0.00  0.00  0.00  0.00
  C32                     1.00   0.00  0.00  0.00  1.00  0.00  0.00  0.00  0.00  0.00
  C33                     1.00   0.00  0.00  0.00  1.00  0.00  0.00  0.00  0.00  0.00
  C34                     1.00   0.00  0.00  0.00  1.00  0.00  0.00  0.00  0.00  0.00
  C35                     1.00   0.00  0.00  0.00  1.00  0.00  0.00  0.00  0.00  0.00
  C36                     1.00   0.00  0.00  0.00  1.00  0.00  0.00  0.00  0.00  0.00
  C37                     1.00   0.00  0.00  0.00  1.00  0.00  0.00  0.00  0.00  0.00
  C38                     1.00   0.00  0.00  0.00  1.00  0.00  0.00  0.00  0.00  0.00
  C39                     1.00   0.00  0.00  0.00  1.00  0.00  0.00  0.00  0.00  0.00
  C40                     1.00   0.00  0.00  0.00  1.00  0.00  0.00  0.00  0.00  0.00
  C41                     1.00   0.00  0.00  0.00  1.00  0.00  0.00  0.00  0.00  0.00
  C43                     1.00   0.00  0.00  0.00  1.00  0.00  0.00  0.00  0.00  0.00
  C44                     1.00   0.00  0.00  0.00  1.00  0.00  0.00  0.00  0.00  0.00
  C45                     1.00   0.00  0.00  0.00  1.00  0.00  0.00  0.00  0.00  0.00
  C46                     1.00   0.00  0.00  0.00  1.00  0.00  0.00  0.00  0.00  0.00
  C48                     1.00   0.00  0.00  0.00  1.00  0.00  0.00  0.00  0.00  0.00
  C42                     1.00   0.00  0.00  0.00  1.00  0.00  0.00  0.00  0.00  0.00
  C50                     1.00   0.00  0.00  0.00  1.00  0.00  0.00  0.00  0.00  0.00
  C49                     1.00   0.00  0.00  0.00  1.00  0.00  0.00  0.00  0.00  0.00
  C01                     1.00   0.00  0.00  0.00  1.00  0.00  0.00  0.00  0.00  0.00
  C02                     1.00   0.00  0.00  0.00  1.00  0.00  0.00  0.00  0.00  0.00
  C03                     1.00   0.00  0.00  0.00  1.00  0.00  0.00  0.00  0.00  0.00
  C04                     1.00   0.00  0.00  0.00  1.00  0.00  0.00  0.00  0.00  0.00
  C05                     1.00   0.00  0.00  0.00  1.00  0.00  0.00  0.00  0.00  0.00
  C06                     1.00   0.00  0.00  0.00  1.00  0.00  0.00  0.00  0.00  0.00
  C07                     1.00   0.00  0.00  0.00  1.00  0.00  0.00  0.00  0.00  0.00
  C08                     1.00   0.00  0.00  0.00  1.00  0.00  0.00  0.00  0.00  0.00
  C09                     1.00   0.00  0.00  0.00  1.00  0.00  0.00  0.00  0.00  0.00
  C10                     1.00   0.00  0.00  0.00  1.00  0.00  0.00  0.00  0.00  0.00
  C11                     1.00   0.00  0.00  0.00  1.00  0.00  0.00  0.00  0.00  0.00
  C12                     1.00   0.00  0.00  0.00  1.00  0.00  0.00  0.00  0.00  0.00
  C13                     1.00   0.00  0.00  0.00  1.00  0.00  0.00  0.00  0.00  0.00
  C14                     1.00   0.00  0.00  0.00  1.00  0.00  0.00  0.00  0.00  0.00
  C15                     1.00   0.00  0.00  0.00  1.00  0.00  0.00  0.00  0.00  0.00
  C16                     1.00   0.00  0.00  0.00  1.00  0.00  0.00  0.00  0.00  0.00
  C17                     1.00   0.00  0.00  0.00  1.00  0.00  0.00  0.00  0.00  0.00
  C18                     1.00   0.00  0.00  0.00  1.00  0.00  0.00  0.00  0.00  0.00
  C19                     1.00   0.00  0.00  0.00  1.00  0.00  0.00  0.00  0.00  0.00
  C20                     1.00   0.00  0.00  0.00  1.00  0.00  0.00  0.00  0.00  0.00
  C21                     1.00   0.00  0.00  0.00  1.00  0.00  0.00  0.00  0.00  0.00
  C22                     1.00   0.00  0.00  0.00  1.00  0.00  0.00  0.00  0.00  0.00
  C47                     1.00   0.00  0.00  0.00  1.00  0.00  0.00  0.00  0.00  0.00
  Cout                    1.00   0.00  0.00  0.00  1.00  0.00  0.00  0.00  0.00  0.00
  
  
  *************************
  Conduit Surcharge Summary
  *************************
  
  ----------------------------------------------------------------------------
                                                           Hours        Hours 
                         --------- Hours Full --------   Above Full   Capacity
  Conduit                Both Ends  Upstream  Dnstream   Normal Flow   Limited
  ----------------------------------------------------------------------------
  C23                         0.67      0.67      0.67      0.01         0.01
  C24                         0.67      0.67      0.67      0.67         0.01
  C25                         0.67      0.67      0.67      0.01         0.01
  C26                         0.67      0.67      0.67      0.64         0.01
  C27                         0.67      0.67      0.67      0.01         0.01
  C28                         0.67      0.67      0.67      0.67         0.01
  C29                         0.67      0.67      0.67      0.01         0.01
  C30                         0.67      0.67      0.67      0.67         0.01
  C31                         0.67      0.67      0.67      0.67         0.01
  C32                         0.67      0.67      0.67      0.67         0.01
  C33                         0.67      0.67      0.67      0.67         0.01
  C34                         0.67      0.67      0.67      0.67         0.01
  C35                         0.67      0.67      0.67      0.01         0.01
  C36                         0.67      0.67      0.67      0.01         0.01
  C37                         0.67      0.67      0.67      0.67         0.01
  C38                         0.67      0.67      0.67      0.67         0.01
  C39                         0.67      0.67      0.67      0.67         0.01
  C40                         0.67      0.67      0.67      0.01         0.01
  C41                         0.67      0.67      0.67      0.01         0.01
  C43                         0.67      0.67      0.67      0.01         0.01
  C44                         0.67      0.67      0.67      0.67         0.01
  C45                         0.67      0.67      0.67      0.67         0.01
  C46                         0.67      0.67      0.67      0.67         0.01
  C48                         0.67      0.67      0.67      0.01         0.01
  C42                         0.67      0.67      0.67      0.67         0.01
  C50                         0.67      0.67      0.67      0.67         0.01
  C49                         0.67      0.67      0.67      0.67         0.01
  C01                         0.67      0.67      0.67      0.01         0.01
  C02                         0.67      0.67      0.67      0.01         0.01
  C03                         0.67      0.67      0.67      0.67         0.01
  C04                         0.67      0.67      0.67      0.67         0.01
  C05                         0.67      0.67      0.67      0.67         0.01
  C06                         0.67      0.67      0.67      0.01         0.01
  C07                         0.67      0.67      0.67      0.01         0.01
  C08                         0.67      0.67      0.67      0.01         0.01
  C09                         0.67      0.67      0.67      0.67         0.01
  C10                         0.67      0.67      0.67      0.67         0.01
  C11                         0.67      0.67      0.67      0.01         0.01
  C12                         0.67      0.67      0.67      0.67         0.01
  C13                         0.67      0.67      0.67      0.67         0.01
  C14                         0.67      0.67      0.67      0.67         0.01
  C15                         0.67      0.67      0.67      0.67         0.01
  C16                         0.67      0.67      0.67      0.67         0.01
  C17                         0.67      0.67      0.67      0.67         0.01
  C18                         0.67      0.67      0.67      0.01         0.01
  C19                         0.67      0.67      0.67      0.01         0.01
  C20                         0.67      0.67      0.67      0.67         0.01
  C21                         0.67      0.67      0.67      0.01         0.01
  C22                         0.67      0.67      0.67      0.01         0.01
  C47                         0.67      0.67      0.67      0.01         0.01
  Cout                        0.01      0.67      0.01      0.67         0.01
  
  
  ***************
  Pumping Summary
  ***************
  
  ---------------------------------------------------------------------------------------------------------
                                                  Min       Avg       Max     Total     Power    % Time Off
                        Percent   Number of      Flow      Flow      Flow    Volume     Usage    Pump Curve
  Pump                 Utilized   Start-Ups       CMS       CMS       CMS  10^6 ltr     Kw-hr    Low   High
  ---------------------------------------------------------------------------------------------------------
  P1                       0.00           0      0.00      0.00      0.00     0.000      0.00    0.0    0.0
  

  Analysis begun on:  Mon Nov 25 18:31:18 2024
  Analysis ended on:  Mon Nov 25 18:31:18 2024
  Total elapsed time: < 1 sec