
  EPA STORM WATER MANAGEMENT MODEL - VERSION 5.2 (Build 5.2.4)
  PYSWMM TOOLKIT API - VERSION v1.0 (2023-11-27)
  ------------------------------------------------------------

  WARNING 04: minimum elevation drop used for Conduit C23
  WARNING 04: minimum elevation drop used for Conduit C24
  WARNING 04: minimum elevation drop used for Conduit C25
  WARNING 04: minimum elevation drop used for Conduit C26
  WARNING 04: minimum elevation drop used for Conduit C27
  WARNING 04: minimum elevation drop used for Conduit C28
  WARNING 04: minimum elevation drop used for Conduit C29
  WARNING 04: minimum elevation drop used for Conduit C30
  WARNING 04: minimum elevation drop used for Conduit C31
  WARNING 04: minimum elevation drop used for Conduit C32
  WARNING 04: minimum elevation drop used for Conduit C33
  WARNING 04: minimum elevation drop used for Conduit C34
  WARNING 04: minimum elevation drop used for Conduit C35
  WARNING 04: minimum elevation drop used for Conduit C36
  WARNING 04: minimum elevation drop used for Conduit C37
  WARNING 04: minimum elevation drop used for Conduit C38
  WARNING 04: minimum elevation drop used for Conduit C39
  WARNING 04: minimum elevation drop used for Conduit C40
  WARNING 04: minimum elevation drop used for Conduit C41
  WARNING 04: minimum elevation drop used for Conduit C43
  WARNING 04: minimum elevation drop used for Conduit C44
  WARNING 04: minimum elevation drop used for Conduit C45
  WARNING 04: minimum elevation drop used for Conduit C46
  WARNING 04: minimum elevation drop used for Conduit C48
  WARNING 04: minimum elevation drop used for Conduit C42
  WARNING 04: minimum elevation drop used for Conduit C50
  WARNING 04: minimum elevation drop used for Conduit C49
  WARNING 04: minimum elevation drop used for Conduit C01
  WARNING 04: minimum elevation drop used for Conduit C02
  WARNING 04: minimum elevation drop used for Conduit C03
  WARNING 04: minimum elevation drop used for Conduit C04
  WARNING 04: minimum elevation drop used for Conduit C05
  WARNING 04: minimum elevation drop used for Conduit C06
  WARNING 04: minimum elevation drop used for Conduit C07
  WARNING 04: minimum elevation drop used for Conduit C08
  WARNING 04: minimum elevation drop used for Conduit C09
  WARNING 04: minimum elevation drop used for Conduit C10
  WARNING 04: minimum elevation drop used for Conduit C11
  WARNING 04: minimum elevation drop used for Conduit C12
  WARNING 04: minimum elevation drop used for Conduit C13
  WARNING 04: minimum elevation drop used for Conduit C14
  WARNING 04: minimum elevation drop used for Conduit C15
  WARNING 04: minimum elevation drop used for Conduit C16
  WARNING 04: minimum elevation drop used for Conduit C17
  WARNING 04: minimum elevation drop used for Conduit C18
  WARNING 04: minimum elevation drop used for Conduit C19
  WARNING 04: minimum elevation drop used for Conduit C20
  WARNING 04: minimum elevation drop used for Conduit C21
  WARNING 04: minimum elevation drop used for Conduit C22
  WARNING 04: minimum elevation drop used for Conduit C47
  WARNING 04: minimum elevation drop used for Conduit Cout
  
  ****************
  Analysis Options
  ****************
  Flow Units ............... CMS
  Process Models:
    Rainfall/Runoff ........ YES
    RDII ................... NO
    Snowmelt ............... NO
    Groundwater ............ NO
    Flow Routing ........... YES
    Ponding Allowed ........ NO
    Water Quality .......... NO
  Infiltration Method ...... HORTON
  Flow Routing Method ...... DYNWAVE
  Surcharge Method ......... EXTRAN
  Starting Date ............ 08/08/2022 19:00:00
  Ending Date .............. 08/08/2022 20:40:00
  Antecedent Dry Days ...... 0.0
  Report Time Step ......... 00:10:00
  Wet Time Step ............ 00:05:00
  Dry Time Step ............ 01:00:00
  Routing Time Step ........ 300.00 sec
  Variable Time Step ....... YES
  Maximum Trials ........... 8
  Number of Threads ........ 1
  Head Tolerance ........... 0.001524 m
  
  
  *********************
  Rainfall File Summary
  *********************
  Station    First        Last         Recording   Periods    Periods    Periods
  ID         Date         Date         Frequency  w/Precip    Missing    Malfunc.
  -------------------------------------------------------------------------------
  7          08/08/2022   08/08/2022      10 min        11          0          0

  
  
  **************************        Volume         Depth
  Runoff Quantity Continuity     hectare-m            mm
  **************************     ---------       -------
  Total Precipitation ......       323.820      3238.331
  Evaporation Loss .........         0.000         0.000
  Infiltration Loss ........         0.000         0.000
  Surface Runoff ...........       310.305      3103.177
  Final Storage ............        14.623       146.234
  Continuity Error (%) .....        -0.342
  
  
  **************************        Volume        Volume
  Flow Routing Continuity        hectare-m      10^6 ltr
  **************************     ---------     ---------
  Dry Weather Inflow .......         0.000         0.000
  Wet Weather Inflow .......       308.346      3083.488
  Groundwater Inflow .......         0.000         0.000
  RDII Inflow ..............         0.000         0.000
  External Inflow ..........         0.000         0.000
  External Outflow .........         4.309        43.094
  Flooding Loss ............       299.810      2998.127
  Evaporation Loss .........         0.000         0.000
  Exfiltration Loss ........         0.000         0.000
  Initial Stored Volume ....         0.046         0.463
  Final Stored Volume ......         1.883        18.831
  Continuity Error (%) .....         0.775
  
  
  *************************
  Highest Continuity Errors
  *************************
  Node J30 (16.89%)
  Node J3 (13.42%)
  Node J17 (8.97%)
  Node J18 (5.40%)
  Node J24 (3.58%)
  
  
  ***************************
  Time-Step Critical Elements
  ***************************
  Link Cout (99.51%)
  
  
  ********************************
  Highest Flow Instability Indexes
  ********************************
  All links are stable.
  
  
  *********************************
  Most Frequent Nonconverging Nodes
  *********************************
  Convergence obtained at all time steps.
  
  
  *************************
  Routing Time Step Summary
  *************************
  Minimum Time Step           :     4.92 sec
  Average Time Step           :    14.60 sec
  Maximum Time Step           :   300.00 sec
  % of Time in Steady State   :     0.00
  Average Iterations per Step :     2.01
  % of Steps Not Converging   :     0.00
  Time Step Frequencies       :
     300.000 - 83.462 sec      :     0.24 %
     83.462 - 23.220 sec      :     0.00 %
     23.220 -  6.460 sec      :    99.27 %
      6.460 -  1.797 sec      :     0.49 %
      1.797 -  0.500 sec      :     0.00 %
  
  
  ***************************
  Subcatchment Runoff Summary
  ***************************
  
  ------------------------------------------------------------------------------------------------------------------------------
                            Total      Total      Total      Total     Imperv       Perv      Total       Total     Peak  Runoff
                           Precip      Runon       Evap      Infil     Runoff     Runoff     Runoff      Runoff   Runoff   Coeff
  Subcatchment                 mm         mm         mm         mm         mm         mm         mm    10^6 ltr      CMS
  ------------------------------------------------------------------------------------------------------------------------------
  S1                      3238.33       0.00       0.00       0.00      32.06    3206.27    3238.33      816.91   192.24   1.000
  S2                      3238.33       0.00       0.00       0.00      29.47    3209.35    3238.82       25.17     5.92   1.000
  S3                      3238.33       0.00       0.00       0.00      29.47    3208.86    3238.33        6.70     1.58   1.000
  S4                      3238.33       0.00       0.00       0.00      29.47    3208.86    3238.33        6.64     1.56   1.000
  S5                      3238.33       0.00       0.00       0.00      29.47    3208.86    3238.33        9.68     2.28   1.000
  S6                      3238.33       0.00       0.00       0.00      29.47    3208.86    3238.33       26.68     6.28   1.000
  S7                      3238.33       0.00       0.00       0.00      29.47    3208.86    3238.33        5.02     1.18   1.000
  S8                      3238.33       0.00       0.00       0.00      29.47    3208.86    3238.33       15.77     3.71   1.000
  S9                      3238.33       0.00       0.00       0.00      29.47    3208.86    3238.33       19.49     4.59   1.000
  S10                     3238.33       0.00       0.00       0.00       0.00    3208.86    3208.86        4.52     1.06   0.991
  S11                     3238.33       0.00       0.00       0.00      29.47    3186.94    3216.41       47.06    11.15   0.993
  S12                     3238.33       0.00       0.00       0.00      29.47    3208.86    3238.33       28.11     6.61   1.000
  S13                     3238.33       0.00       0.00       0.00       0.00    3208.86    3208.86       27.08     6.37   0.991
  S14                     3238.33       0.00       0.00       0.00      27.20    3211.13    3238.33       26.00     6.12   1.000
  S15                     3238.33       0.00       0.00       0.00      27.20    3211.13    3238.33       24.29     5.72   1.000
  S16                     3238.33       0.00       0.00       0.00      24.94    3212.15    3237.08       57.17    13.46   1.000
  S17                     3238.33       0.00       0.00       0.00      24.94    3143.91    3168.85      107.90    25.94   0.979
  S18                     3238.33       0.00       0.00       0.00      24.94    3213.34    3238.28        4.18     0.98   1.000
  S19                     3238.33       0.00       0.00       0.00      24.94       0.00      24.94        0.06     0.01   0.008
  S20                     3238.33       0.00       0.00       0.00      24.94    3213.39    3238.33        3.30     0.78   1.000
  S21                     3238.33       0.00       0.00       0.00      24.94    3204.32    3229.26       53.54    12.63   0.997
  S22                     3238.33       0.00       0.00       0.00      24.94    3213.30    3238.23        1.07     0.25   1.000
  S23                     3238.33       0.00       0.00       0.00      24.94    3213.40    3238.33        1.26     0.30   1.000
  S24                     3238.33       0.00       0.00       0.00      24.93    3213.40    3238.33        1.59     0.37   1.000
  S25                     3238.33       0.00       0.00       0.00      24.93    3213.40    3238.33        1.91     0.45   1.000
  S26                     3238.33       0.00       0.00       0.00      24.94    3213.40    3238.33        2.23     0.53   1.000
  S27                     3238.33       0.00       0.00       0.00      24.94    3213.53    3238.46       26.91     6.33   1.000
  S28                     3238.33       0.00       0.00       0.00      24.94    3205.94    3230.87       28.69     6.77   0.998
  S29                     3238.33       0.00       0.00       0.00      24.94    3213.37    3238.30        2.98     0.70   1.000
  S30                     3238.33       0.00       0.00       0.00      24.94    3120.42    3145.36      200.36    48.48   0.971
  S31                     3238.33       0.00       0.00       0.00      25.91    3212.42    3238.33       43.88    10.33   1.000
  S32                     3238.33       0.00       0.00       0.00      25.91    3212.42    3238.33       13.50     3.18   1.000
  S33                     3238.33       0.00       0.00       0.00      30.44    3207.89    3238.33       10.07     2.37   1.000
  S34                     3238.33       0.00       0.00       0.00      30.44    3207.89    3238.33       10.65     2.51   1.000
  S35                     3238.33       0.00       0.00       0.00      29.47    3208.86    3238.33       13.02     3.06   1.000
  S36                     3238.33       0.00       0.00       0.00      29.47    3208.86    3238.33        5.34     1.26   1.000
  S37                     3238.33       0.00       0.00       0.00      29.47    3208.86    3238.33       11.66     2.74   1.000
  S38                     3238.33       0.00       0.00       0.00      29.47    3208.86    3238.33        0.52     0.12   1.000
  S39                     3238.33       0.00       0.00       0.00      29.47    3208.86    3238.33       13.28     3.12   1.000
  S40                     3238.33       0.00       0.00       0.00      29.47    3208.86    3238.33        4.57     1.07   1.000
  S41                     3238.33       0.00       0.00       0.00      29.47    3208.86    3238.33        7.35     1.73   1.000
  S42                     3238.33       0.00       0.00       0.00      29.47    3208.86    3238.33       10.23     2.41   1.000
  S43                     3238.33       0.00       0.00       0.00      29.47    3208.86    3238.33       23.32     5.49   1.000
  S44                     3238.33       0.00       0.00       0.00      29.47    3208.86    3238.33       16.90     3.98   1.000
  S45                     3238.33       0.00       0.00       0.00      29.47    3208.86    3238.33        1.72     0.40   1.000
  S46                     3238.33       0.00       0.00       0.00      29.47    3208.86    3238.33       15.67     3.69   1.000
  S47                     3238.33       0.00       0.00       0.00      29.47    3208.86    3238.33       31.67     7.45   1.000
  S48                     3238.33       0.00       0.00       0.00      29.47    3208.86    3238.33       36.59     8.61   1.000
  S49                     3238.33       0.00       0.00       0.00      29.47    3208.86    3238.33       22.25     5.24   1.000
  S50                     3238.33       0.00       0.00       0.00      29.47    3208.86    3238.33       18.33     4.31   1.000
  S51                     3238.33       0.00       0.00       0.00      29.47    3208.86    3238.33       10.82     2.55   1.000
  S52                     3238.33       0.00       0.00       0.00      29.47    3208.86    3238.33       28.66     6.74   1.000
  S53                     3238.33       0.00       0.00       0.00      29.47    3202.04    3231.51       39.36     9.28   0.998
  S54                     3238.33       0.00       0.00       0.00      29.47    3209.31    3238.78       14.80     3.48   1.000
  S55                     3238.33       0.00       0.00       0.00      29.47    3208.86    3238.33        1.23     0.29   1.000
  S56                     3238.33       0.00       0.00       0.00      29.47    3208.73    3238.20        1.23     0.29   1.000
  S57                     3238.33       0.00       0.00       0.00      29.47    3208.86    3238.33       16.74     3.94   1.000
  S58                     3238.33       0.00       0.00       0.00      29.47    3208.86    3238.33       21.50     5.06   1.000
  S59                     3238.33       0.00       0.00       0.00      29.47    3208.86    3238.33       20.89     4.92   1.000
  S60                     3238.33       0.00       0.00       0.00      24.94    3213.77    3238.71       12.73     2.99   1.000
  S61                     3238.33       0.00       0.00       0.00      24.94       0.00      24.94        0.08     0.02   0.008
  S62                     3238.33       0.00       0.00       0.00      24.94    3103.39    3128.33      167.65    40.76   0.966
  S63                     3238.33       0.00       0.00       0.00      24.94    3213.40    3238.33       30.44     7.16   1.000
  S64                     3238.33       0.00       0.00       0.00      24.94    3213.40    3238.33       82.42    19.40   1.000
  S65                     3238.33       0.00       0.00       0.00      24.93    3213.40    3238.33       13.15     3.09   1.000
  S66                     3238.33       0.00       0.00       0.00      24.93    3213.40    3238.33       21.21     4.99   1.000
  S67                     3238.33       0.00       0.00       0.00      24.93    3213.40    3238.33       39.64     9.33   1.000
  S68                     3238.33       0.00       0.00       0.00      24.94    3213.40    3238.33       46.47    10.94   1.000
  S69                     3238.33       0.00       0.00       0.00      24.94       0.00      24.94        0.62     0.15   0.008
  S70                     3238.33       0.00       0.00       0.00      24.94    3203.56    3228.49       84.49    19.94   0.997
  S71                     3238.33       0.00       0.00       0.00      29.47    3208.86    3238.33       47.64    11.21   1.000
  S72                     3238.33       0.00       0.00       0.00      24.94    3212.90    3237.84       16.06     3.78   1.000
  S73                     3238.33       0.00       0.00       0.00      24.94    3213.40    3238.33       67.88    15.97   1.000
  S74                     3238.33       0.00       0.00       0.00      24.94       0.00      24.94        0.16     0.04   0.008
  S75                     3238.33       0.00       0.00       0.00      24.93    3213.40    3238.33        2.17     0.51   1.000
  S76                     3238.33       0.00       0.00       0.00      24.93    3213.40    3238.33       42.78    10.07   1.000
  S77                     3238.33       0.00       0.00       0.00      24.94    3213.40    3238.33       34.62     8.15   1.000
  S78                     3238.33       0.00       0.00       0.00      24.93    3213.40    3238.33       25.10     5.91   1.000
  S79                     3238.33       0.00       0.00       0.00      29.47    3208.86    3238.33       21.99     5.17   1.000
  S80                     3238.33       0.00       0.00       0.00      24.94    3213.54    3238.47        8.94     2.10   1.000
  S81                     3238.33       0.00       0.00       0.00      24.94    3213.40    3238.33       36.63     8.62   1.000
  S82                     3238.33       0.00       0.00       0.00      24.93    3213.40    3238.33       35.75     8.41   1.000
  S83                     3238.33       0.00       0.00       0.00      24.94    3213.40    3238.33       22.99     5.41   1.000
  S84                     3238.33       0.00       0.00       0.00      29.47    3208.86    3238.33       15.03     3.54   1.000
  S85                     3238.33       0.00       0.00       0.00      29.47    3205.08    3234.55       39.98     9.42   0.999
  S86                     3238.33       0.00       0.00       0.00       0.00    3208.86    3208.86       37.13     8.74   0.991
  S87                     3238.33       0.00       0.00       0.00      29.47    3208.86    3238.33       40.22     9.47   1.000
  S88                     3238.33       0.00       0.00       0.00      29.47    3208.86    3238.33        7.25     1.71   1.000
  S89                     3238.33       0.00       0.00       0.00      29.47    3208.86    3238.33       32.74     7.70   1.000
  S90                     3238.33       0.00       0.00       0.00       0.00    3208.86    3208.86       15.76     3.71   0.991
  S91                     3238.33       0.00       0.00       0.00      29.47    3208.86    3238.33        5.34     1.26   1.000
  
  
  ******************
  Node Depth Summary
  ******************
  
  ---------------------------------------------------------------------------------
                                 Average  Maximum  Maximum  Time of Max    Reported
                                   Depth    Depth      HGL   Occurrence   Max Depth
  Node                 Type       Meters   Meters   Meters  days hr:min      Meters
  ---------------------------------------------------------------------------------
  J7                   JUNCTION     2.49     2.50     2.50     0  00:05        2.50
  J13                  JUNCTION     2.49     2.50     2.50     0  00:05        2.50
  J19                  JUNCTION     2.49     2.50     2.50     0  00:05        2.50
  J25                  JUNCTION     2.49     2.50     2.50     0  00:05        2.50
  J1                   JUNCTION     2.49     2.50     2.50     0  00:05        2.50
  J2                   JUNCTION     2.49     2.50     2.50     0  00:05        2.50
  J3                   JUNCTION     2.49     2.50     2.50     0  00:05        2.50
  J4                   JUNCTION     2.49     2.50     2.50     0  00:05        2.50
  J5                   JUNCTION     2.49     2.50     2.50     0  00:05        2.50
  J6                   JUNCTION     2.49     2.50     2.50     0  00:05        2.50
  J8                   JUNCTION     2.49     2.50     2.50     0  00:05        2.50
  J9                   JUNCTION     2.49     2.50     2.50     0  00:05        2.50
  J10                  JUNCTION     2.49     2.50     2.50     0  00:05        2.50
  J11                  JUNCTION     2.49     2.50     2.50     0  00:05        2.50
  J12                  JUNCTION     2.49     2.50     2.50     0  00:05        2.50
  J14                  JUNCTION     2.49     2.50     2.50     0  00:05        2.50
  J15                  JUNCTION     2.49     2.50     2.50     0  00:05        2.50
  J16                  JUNCTION     2.49     2.50     2.50     0  00:05        2.50
  J17                  JUNCTION     2.49     2.50     2.50     0  00:05        2.50
  J18                  JUNCTION     2.49     2.50     2.50     0  00:05        2.50
  J20                  JUNCTION     2.49     2.50     2.50     0  00:05        2.50
  J21                  JUNCTION     2.49     2.50     2.50     0  00:05        2.50
  J22                  JUNCTION     2.49     2.50     2.50     0  00:05        2.50
  J23                  JUNCTION     2.49     2.50     2.50     0  00:05        2.50
  J24                  JUNCTION     2.49     2.50     2.50     0  00:05        2.50
  J26                  JUNCTION     2.49     2.50     2.50     0  00:05        2.50
  J27                  JUNCTION     2.49     2.50     2.50     0  00:05        2.50
  J29                  JUNCTION     2.49     2.50     2.50     0  00:05        2.50
  J30                  JUNCTION     2.49     2.50     2.50     0  00:05        2.50
  J31                  JUNCTION     2.49     2.50     2.50     0  00:05        2.50
  J33                  JUNCTION     2.49     2.50     2.50     0  00:05        2.50
  J32                  JUNCTION     2.49     2.50     2.50     0  00:05        2.50
  J28                  JUNCTION     2.49     2.50     2.50     0  00:05        2.50
  OF                   OUTFALL      1.37     1.41     1.41     0  00:05        1.37
  
  
  *******************
  Node Inflow Summary
  *******************
  
  -------------------------------------------------------------------------------------------------
                                  Maximum  Maximum                  Lateral       Total        Flow
                                  Lateral    Total  Time of Max      Inflow      Inflow     Balance
                                   Inflow   Inflow   Occurrence      Volume      Volume       Error
  Node                 Type           CMS      CMS  days hr:min    10^6 ltr    10^6 ltr     Percent
  -------------------------------------------------------------------------------------------------
  J7                   JUNCTION    53.393   53.393     0  00:50         219         219       0.714
  J13                  JUNCTION     4.348    4.348     0  00:20        18.4        18.4       1.524
  J19                  JUNCTION   206.044  206.044     0  00:50         870         870       1.482
  J25                  JUNCTION    25.936   25.936     0  00:50         107         107       0.709
  J1                   JUNCTION    17.295   17.295     0  00:35        73.1        73.1       1.561
  J2                   JUNCTION    12.994   12.994     0  00:40        54.9        54.9       1.144
  J3                   JUNCTION     0.579   19.972     0  00:05        2.45        10.6      15.505
  J4                   JUNCTION    37.624   38.372     0  00:15         159         161       1.023
  J5                   JUNCTION    31.108   31.108     0  00:50         131         131       0.842
  J6                   JUNCTION    13.611   13.611     0  00:40        57.5        57.5       1.537
  J8                   JUNCTION    20.942   20.942     0  00:20        88.5        88.5       1.561
  J9                   JUNCTION     9.419    9.419     0  00:20        39.7        39.7       1.124
  J10                  JUNCTION    14.053   14.053     0  00:15        59.4        59.4       1.312
  J11                  JUNCTION    15.097   15.558     0  00:15        63.8        65.3       1.292
  J12                  JUNCTION    15.973   16.250     0  00:15        67.5        68.5       1.291
  J14                  JUNCTION    13.535   13.535     0  00:45        57.2        57.2       1.561
  J15                  JUNCTION    19.372   19.372     0  00:50        81.7        81.7       1.407
  J16                  JUNCTION    11.210   12.506     0  00:05        47.4        50.8       1.370
  J17                  JUNCTION     0.146    8.810     0  00:05       0.616        7.03       9.856
  J18                  JUNCTION     0.511    4.331     0  00:05        2.16        5.37       5.707
  J20                  JUNCTION    37.866   37.866     0  00:50         160         160       1.464
  J21                  JUNCTION    12.493   12.493     0  00:50        52.8        52.8       1.561
  J22                  JUNCTION    25.659   25.659     0  00:50         108         108       1.307
  J23                  JUNCTION    13.458   13.800     0  00:15        56.8          58       1.237
  J24                  JUNCTION     1.774    5.184     0  00:05         7.5        10.4       3.708
  J26                  JUNCTION    11.035   11.035     0  00:35        46.6        46.6       1.561
  J27                  JUNCTION     9.678   10.603     0  00:05        40.9        43.4       1.411
  J29                  JUNCTION    15.874   16.564     0  00:15        67.1        69.2       1.262
  J30                  JUNCTION     0.000   19.785     0  00:05           0        8.37      20.322
  J31                  JUNCTION    48.485   48.606     0  00:50         199         200       0.517
  J33                  JUNCTION    15.619   15.619     0  00:45          66          66       1.559
  J32                  JUNCTION     7.125    7.125     0  00:45        30.1        30.1       1.400
  J28                  JUNCTION    11.393   13.773     0  00:05        48.1        51.3       1.295
  OF                   OUTFALL      0.000    7.967     0  00:05           0        43.1       0.000
  
  
  **********************
  Node Surcharge Summary
  **********************
  
  Surcharging occurs when water rises above the top of the highest conduit.
  ---------------------------------------------------------------------
                                               Max. Height   Min. Depth
                                   Hours       Above Crown    Below Rim
  Node                 Type      Surcharged         Meters       Meters
  ---------------------------------------------------------------------
  J7                   JUNCTION        1.67          0.850        0.000
  J13                  JUNCTION        1.67          0.850        0.000
  J19                  JUNCTION        1.67          0.850        0.000
  J25                  JUNCTION        1.67          0.850        0.000
  J1                   JUNCTION        1.67          0.850        0.000
  J2                   JUNCTION        1.67          0.850        0.000
  J3                   JUNCTION        1.67          0.850        0.000
  J4                   JUNCTION        1.67          0.850        0.000
  J5                   JUNCTION        1.67          0.850        0.000
  J6                   JUNCTION        1.67          0.850        0.000
  J8                   JUNCTION        1.67          0.850        0.000
  J9                   JUNCTION        1.67          0.850        0.000
  J10                  JUNCTION        1.67          0.850        0.000
  J11                  JUNCTION        1.67          0.850        0.000
  J12                  JUNCTION        1.67          0.850        0.000
  J14                  JUNCTION        1.67          0.850        0.000
  J15                  JUNCTION        1.67          0.850        0.000
  J16                  JUNCTION        1.67          0.850        0.000
  J17                  JUNCTION        1.67          0.850        0.000
  J18                  JUNCTION        1.67          0.850        0.000
  J20                  JUNCTION        1.67          0.850        0.000
  J21                  JUNCTION        1.67          0.850        0.000
  J22                  JUNCTION        1.67          0.850        0.000
  J23                  JUNCTION        1.67          0.850        0.000
  J24                  JUNCTION        1.67          0.850        0.000
  J26                  JUNCTION        1.67          0.850        0.000
  J27                  JUNCTION        1.67          0.850        0.000
  J29                  JUNCTION        1.67          0.850        0.000
  J30                  JUNCTION        1.67          0.850        0.000
  J31                  JUNCTION        1.67          0.850        0.000
  J33                  JUNCTION        1.67          0.850        0.000
  J32                  JUNCTION        1.67          0.850        0.000
  J28                  JUNCTION        1.67          0.850        0.000
  
  
  *********************
  Node Flooding Summary
  *********************
  
  Flooding refers to all water that overflows a node, whether it ponds or not.
  --------------------------------------------------------------------------
                                                             Total   Maximum
                                 Maximum   Time of Max       Flood    Ponded
                        Hours       Rate    Occurrence      Volume     Depth
  Node                 Flooded       CMS   days hr:min    10^6 ltr    Meters
  --------------------------------------------------------------------------
  J7                      1.67    53.250      0  00:50     217.283     0.000
  J13                     1.67     4.348      0  00:50      18.365     0.000
  J19                     1.67   198.693      0  00:50     827.345     0.000
  J25                     1.67    25.687      0  00:50     104.671     0.000
  J1                      1.67    17.295      0  00:35      73.071     0.000
  J2                      1.67    12.725      0  00:50      51.929     0.000
  J3                      1.67    17.975      0  00:05      10.641     0.000
  J4                      1.67    37.605      0  00:50     156.181     0.000
  J5                      1.67    30.613      0  00:50     124.701     0.000
  J6                      1.67    13.531      0  00:50      56.979     0.000
  J8                      1.67    20.942      0  00:20      88.478     0.000
  J9                      1.67     9.282      0  00:50      38.147     0.000
  J10                     1.67    13.698      0  00:50      56.311     0.000
  J11                     1.67    15.086      0  00:50      62.953     0.000
  J12                     1.67    15.993      0  00:50      66.671     0.000
  J14                     1.67    13.535      0  00:45      57.182     0.000
  J15                     1.67    19.245      0  00:50      80.549     0.000
  J16                     1.67    11.769      0  00:15      48.812     0.000
  J17                     1.67     8.459      0  00:05       7.032     0.000
  J18                     1.67     3.918      0  00:05       4.683     0.000
  J20                     1.67    37.866      0  00:50     159.613     0.000
  J21                     1.67    12.493      0  00:50      52.782     0.000
  J22                     1.67    25.410      0  00:50     105.857     0.000
  J23                     1.67    13.442      0  00:50      56.084     0.000
  J24                     1.67     5.044      0  00:05      10.448     0.000
  J26                     1.67    11.035      0  00:35      46.622     0.000
  J27                     1.67     9.943      0  00:15      41.579     0.000
  J29                     1.67    15.855      0  00:50      66.148     0.000
  J30                     1.67    17.891      0  00:05       8.373     0.000
  J31                     1.67    48.460      0  00:50     196.941     0.000
  J33                     1.67    15.619      0  00:45      65.993     0.000
  J32                     1.67     7.006      0  00:50      29.076     0.000
  J28                     1.67    11.775      0  00:15      48.881     0.000
  
  
  ***********************
  Outfall Loading Summary
  ***********************
  
  -----------------------------------------------------------
                         Flow       Avg       Max       Total
                         Freq      Flow      Flow      Volume
  Outfall Node           Pcnt       CMS       CMS    10^6 ltr
  -----------------------------------------------------------
  OF                   100.00     7.336     7.967      43.094
  -----------------------------------------------------------
  System               100.00     7.336     7.967      43.094
  
  
  ********************
  Link Flow Summary
  ********************
  
  -----------------------------------------------------------------------------
                                 Maximum  Time of Max   Maximum    Max/    Max/
                                  |Flow|   Occurrence   |Veloc|    Full    Full
  Link                 Type          CMS  days hr:min     m/sec    Flow   Depth
  -----------------------------------------------------------------------------
  P1                   PUMP        0.000     0  00:00                          
  C23                  CONDUIT     0.000     0  00:00      0.00    0.00    1.00
  C24                  CONDUIT     0.814     0  00:05      0.38    7.05    1.00
  C25                  CONDUIT     0.000     0  00:00      0.00    0.00    1.00
  C26                  CONDUIT     0.392     0  00:05      0.18    3.07    1.00
  C27                  CONDUIT     0.000     0  00:00      0.00    0.00    1.00
  C28                  CONDUIT     1.819     0  00:05      0.85   12.54    1.00
  C29                  CONDUIT     0.000     0  00:00      0.00    0.00    1.00
  C30                  CONDUIT     0.790     0  00:05      0.37    6.94    1.00
  C31                  CONDUIT     0.321     0  00:05      0.15    2.81    1.00
  C32                  CONDUIT     4.822     0  00:05      2.25   31.17    1.00
  C33                  CONDUIT    12.277     0  00:05      5.74   71.83    1.00
  C34                  CONDUIT     0.962     0  00:05      0.45    7.66    1.00
  C35                  CONDUIT     0.000     0  00:05      0.00    0.00    1.00
  C36                  CONDUIT     0.176     0  00:05      0.08    1.66    1.00
  C37                  CONDUIT     1.827     0  00:05      0.85   12.54    1.00
  C38                  CONDUIT     1.279     0  00:05      0.60    8.92    1.00
  C39                  CONDUIT     2.359     0  00:05      1.10   14.95    1.00
  C40                  CONDUIT     0.000     0  00:00      0.00    0.00    1.00
  C41                  CONDUIT     0.000     0  00:00      0.00    0.00    1.00
  C43                  CONDUIT     0.000     0  00:00      0.00    0.00    1.00
  C44                  CONDUIT     0.815     0  00:05      0.38    6.95    1.00
  C45                  CONDUIT    10.912     0  00:05      5.10   93.63    1.00
  C46                  CONDUIT     5.792     0  00:05      2.71   48.00    1.00
  C48                  CONDUIT     0.000     0  00:05      0.00    0.00    1.00
  C42                  CONDUIT     3.080     0  00:05      1.44   24.42    1.00
  C50                  CONDUIT     0.654     0  00:05      0.31    6.31    1.00
  C49                  CONDUIT     0.744     0  00:05      0.35    6.49    1.00
  C01                  CONDUIT     0.000     0  00:00      0.00    0.00    1.00
  C02                  CONDUIT     0.000     0  00:00      0.00    0.00    1.00
  C03                  CONDUIT     0.801     0  00:05      0.37    6.40    1.00
  C04                  CONDUIT     0.000     0  00:05      0.00    0.00    1.00
  C05                  CONDUIT     0.581     0  00:05      0.27    4.63    1.00
  C06                  CONDUIT     0.000     0  00:00      0.00    0.00    1.00
  C07                  CONDUIT     0.000     0  00:00      0.00    0.00    1.00
  C08                  CONDUIT     0.000     0  00:00      0.00    0.00    1.00
  C09                  CONDUIT     0.801     0  00:05      0.37    7.01    1.00
  C10                  CONDUIT     0.927     0  00:05      0.43    7.39    1.00
  C11                  CONDUIT     0.000     0  00:00      0.00    0.00    1.00
  C12                  CONDUIT     2.667     0  00:05      1.25   22.97    1.00
  C13                  CONDUIT     1.227     0  00:05      0.57   10.68    1.00
  C14                  CONDUIT     3.130     0  00:05      1.46   24.87    1.00
  C15                  CONDUIT     0.285     0  00:05      0.13    2.27    1.00
  C16                  CONDUIT     3.026     0  00:05      1.42   26.56    1.00
  C17                  CONDUIT     2.599     0  00:05      1.22   22.93    1.00
  C18                  CONDUIT     0.000     0  00:00      0.00    0.00    1.00
  C19                  CONDUIT     0.000     0  00:00      0.00    0.00    1.00
  C20                  CONDUIT     2.649     0  00:05      1.24   23.59    1.00
  C21                  CONDUIT     0.000     0  00:05      0.00    0.00    1.00
  C22                  CONDUIT     0.175     0  00:05      0.08    1.38    1.00
  C47                  CONDUIT     0.699     0  00:05      0.33    7.19    1.00
  Cout                 CONDUIT     7.967     0  00:05      3.85   62.91    0.93
  
  
  ***************************
  Flow Classification Summary
  ***************************
  
  -------------------------------------------------------------------------------------
                      Adjusted    ---------- Fraction of Time in Flow Class ---------- 
                       /Actual         Up    Down  Sub   Sup   Up    Down  Norm  Inlet 
  Conduit               Length    Dry  Dry   Dry   Crit  Crit  Crit  Crit  Ltd   Ctrl  
  -------------------------------------------------------------------------------------
  C23                     1.00   0.00  0.00  0.00  1.00  0.00  0.00  0.00  0.00  0.00
  C24                     1.00   0.00  0.00  0.00  1.00  0.00  0.00  0.00  0.00  0.00
  C25                     1.00   0.00  0.00  0.00  1.00  0.00  0.00  0.00  0.00  0.00
  C26                     1.00   0.00  0.00  0.00  1.00  0.00  0.00  0.00  0.00  0.00
  C27                     1.00   0.00  0.00  0.00  1.00  0.00  0.00  0.00  0.00  0.00
  C28                     1.00   0.00  0.00  0.00  1.00  0.00  0.00  0.00  0.00  0.00
  C29                     1.00   0.00  0.00  0.00  1.00  0.00  0.00  0.00  0.00  0.00
  C30                     1.00   0.00  0.00  0.00  1.00  0.00  0.00  0.00  0.00  0.00
  C31                     1.00   0.00  0.00  0.00  1.00  0.00  0.00  0.00  0.00  0.00
  C32                     1.00   0.00  0.00  0.00  1.00  0.00  0.00  0.00  0.00  0.00
  C33                     1.00   0.00  0.00  0.00  1.00  0.00  0.00  0.00  0.00  0.00
  C34                     1.00   0.00  0.00  0.00  1.00  0.00  0.00  0.00  0.00  0.00
  C35                     1.00   0.00  0.00  0.00  1.00  0.00  0.00  0.00  0.00  0.00
  C36                     1.00   0.00  0.00  0.00  1.00  0.00  0.00  0.00  0.00  0.00
  C37                     1.00   0.00  0.00  0.00  1.00  0.00  0.00  0.00  0.00  0.00
  C38                     1.00   0.00  0.00  0.00  1.00  0.00  0.00  0.00  0.00  0.00
  C39                     1.00   0.00  0.00  0.00  1.00  0.00  0.00  0.00  0.00  0.00
  C40                     1.00   0.00  0.00  0.00  1.00  0.00  0.00  0.00  0.00  0.00
  C41                     1.00   0.00  0.00  0.00  1.00  0.00  0.00  0.00  0.00  0.00
  C43                     1.00   0.00  0.00  0.00  1.00  0.00  0.00  0.00  0.00  0.00
  C44                     1.00   0.00  0.00  0.00  1.00  0.00  0.00  0.00  0.00  0.00
  C45                     1.00   0.00  0.00  0.00  1.00  0.00  0.00  0.00  0.00  0.00
  C46                     1.00   0.00  0.00  0.00  1.00  0.00  0.00  0.00  0.00  0.00
  C48                     1.00   0.00  0.00  0.00  1.00  0.00  0.00  0.00  0.00  0.00
  C42                     1.00   0.00  0.00  0.00  1.00  0.00  0.00  0.00  0.00  0.00
  C50                     1.00   0.00  0.00  0.00  1.00  0.00  0.00  0.00  0.00  0.00
  C49                     1.00   0.00  0.00  0.00  1.00  0.00  0.00  0.00  0.00  0.00
  C01                     1.00   0.00  0.00  0.00  1.00  0.00  0.00  0.00  0.00  0.00
  C02                     1.00   0.00  0.00  0.00  1.00  0.00  0.00  0.00  0.00  0.00
  C03                     1.00   0.00  0.00  0.00  1.00  0.00  0.00  0.00  0.00  0.00
  C04                     1.00   0.00  0.00  0.00  1.00  0.00  0.00  0.00  0.00  0.00
  C05                     1.00   0.00  0.00  0.00  1.00  0.00  0.00  0.00  0.00  0.00
  C06                     1.00   0.00  0.00  0.00  1.00  0.00  0.00  0.00  0.00  0.00
  C07                     1.00   0.00  0.00  0.00  1.00  0.00  0.00  0.00  0.00  0.00
  C08                     1.00   0.00  0.00  0.00  1.00  0.00  0.00  0.00  0.00  0.00
  C09                     1.00   0.00  0.00  0.00  1.00  0.00  0.00  0.00  0.00  0.00
  C10                     1.00   0.00  0.00  0.00  1.00  0.00  0.00  0.00  0.00  0.00
  C11                     1.00   0.00  0.00  0.00  1.00  0.00  0.00  0.00  0.00  0.00
  C12                     1.00   0.00  0.00  0.00  1.00  0.00  0.00  0.00  0.00  0.00
  C13                     1.00   0.00  0.00  0.00  1.00  0.00  0.00  0.00  0.00  0.00
  C14                     1.00   0.00  0.00  0.00  1.00  0.00  0.00  0.00  0.00  0.00
  C15                     1.00   0.00  0.00  0.00  1.00  0.00  0.00  0.00  0.00  0.00
  C16                     1.00   0.00  0.00  0.00  1.00  0.00  0.00  0.00  0.00  0.00
  C17                     1.00   0.00  0.00  0.00  1.00  0.00  0.00  0.00  0.00  0.00
  C18                     1.00   0.00  0.00  0.00  1.00  0.00  0.00  0.00  0.00  0.00
  C19                     1.00   0.00  0.00  0.00  1.00  0.00  0.00  0.00  0.00  0.00
  C20                     1.00   0.00  0.00  0.00  1.00  0.00  0.00  0.00  0.00  0.00
  C21                     1.00   0.00  0.00  0.00  1.00  0.00  0.00  0.00  0.00  0.00
  C22                     1.00   0.00  0.00  0.00  1.00  0.00  0.00  0.00  0.00  0.00
  C47                     1.00   0.00  0.00  0.00  1.00  0.00  0.00  0.00  0.00  0.00
  Cout                    1.00   0.00  0.00  0.00  1.00  0.00  0.00  0.00  0.00  0.00
  
  
  *************************
  Conduit Surcharge Summary
  *************************
  
  ----------------------------------------------------------------------------
                                                           Hours        Hours 
                         --------- Hours Full --------   Above Full   Capacity
  Conduit                Both Ends  Upstream  Dnstream   Normal Flow   Limited
  ----------------------------------------------------------------------------
  C23                         1.67      1.67      1.67      0.01         0.01
  C24                         1.67      1.67      1.67      0.90         0.01
  C25                         1.67      1.67      1.67      0.01         0.01
  C26                         1.67      1.67      1.67      0.66         0.01
  C27                         1.67      1.67      1.67      0.01         0.01
  C28                         1.67      1.67      1.67      0.78         0.01
  C29                         1.67      1.67      1.67      0.01         0.01
  C30                         1.67      1.67      1.67      0.91         0.01
  C31                         1.67      1.67      1.67      0.70         0.01
  C32                         1.67      1.67      1.67      0.78         0.01
  C33                         1.67      1.67      1.67      0.73         0.01
  C34                         1.67      1.67      1.67      0.84         0.01
  C35                         1.67      1.67      1.67      0.01         0.01
  C36                         1.67      1.67      1.67      0.49         0.01
  C37                         1.67      1.67      1.67      0.78         0.01
  C38                         1.67      1.67      1.67      0.76         0.01
  C39                         1.67      1.67      1.67      0.74         0.01
  C40                         1.67      1.67      1.67      0.01         0.01
  C41                         1.67      1.67      1.67      0.01         0.01
  C43                         1.67      1.67      1.67      0.01         0.01
  C44                         1.67      1.67      1.67      0.89         0.01
  C45                         1.67      1.67      1.67      1.02         0.01
  C46                         1.67      1.67      1.67      0.98         0.01
  C48                         1.67      1.67      1.67      0.01         0.01
  C42                         1.67      1.67      1.67      0.92         0.01
  C50                         1.67      1.67      1.67      0.98         0.01
  C49                         1.67      1.67      1.67      0.90         0.01
  C01                         1.67      1.67      1.67      0.01         0.01
  C02                         1.67      1.67      1.67      0.01         0.01
  C03                         1.67      1.67      1.67      0.83         0.01
  C04                         1.67      1.67      1.67      0.01         0.01
  C05                         1.67      1.67      1.67      0.77         0.01
  C06                         1.67      1.67      1.67      0.01         0.01
  C07                         1.67      1.67      1.67      0.01         0.01
  C08                         1.67      1.67      1.67      0.01         0.01
  C09                         1.67      1.67      1.67      0.91         0.01
  C10                         1.67      1.67      1.67      0.84         0.01
  C11                         1.67      1.67      1.67      0.01         0.01
  C12                         1.67      1.67      1.67      0.99         0.01
  C13                         1.67      1.67      1.67      0.95         0.01
  C14                         1.67      1.67      1.67      0.93         0.01
  C15                         1.67      1.67      1.67      0.57         0.01
  C16                         1.67      1.67      1.67      1.02         0.01
  C17                         1.67      1.67      1.67      1.02         0.01
  C18                         1.67      1.67      1.67      0.01         0.01
  C19                         1.67      1.67      1.67      0.01         0.01
  C20                         1.67      1.67      1.67      1.02         0.01
  C21                         1.67      1.67      1.67      0.01         0.01
  C22                         1.67      1.67      1.67      0.32         0.01
  C47                         1.67      1.67      1.67      1.06         0.01
  Cout                        0.01      1.67      0.01      1.67         0.01
  
  
  ***************
  Pumping Summary
  ***************
  
  ---------------------------------------------------------------------------------------------------------
                                                  Min       Avg       Max     Total     Power    % Time Off
                        Percent   Number of      Flow      Flow      Flow    Volume     Usage    Pump Curve
  Pump                 Utilized   Start-Ups       CMS       CMS       CMS  10^6 ltr     Kw-hr    Low   High
  ---------------------------------------------------------------------------------------------------------
  P1                       0.00           0      0.00      0.00      0.00     0.000      0.00    0.0    0.0
  

  Analysis begun on:  Thu Oct 31 20:15:21 2024
  Analysis ended on:  Thu Oct 31 20:15:22 2024
  Total elapsed time: 00:00:01