
  EPA STORM WATER MANAGEMENT MODEL - VERSION 5.2 (Build 5.2.4)
  PYSWMM TOOLKIT API - VERSION v1.0 (2023-11-27)
  ------------------------------------------------------------

  WARNING 04: minimum elevation drop used for Conduit C23
  WARNING 04: minimum elevation drop used for Conduit C24
  WARNING 04: minimum elevation drop used for Conduit C25
  WARNING 04: minimum elevation drop used for Conduit C26
  WARNING 04: minimum elevation drop used for Conduit C27
  WARNING 04: minimum elevation drop used for Conduit C28
  WARNING 04: minimum elevation drop used for Conduit C29
  WARNING 04: minimum elevation drop used for Conduit C30
  WARNING 04: minimum elevation drop used for Conduit C31
  WARNING 04: minimum elevation drop used for Conduit C32
  WARNING 04: minimum elevation drop used for Conduit C33
  WARNING 04: minimum elevation drop used for Conduit C34
  WARNING 04: minimum elevation drop used for Conduit C35
  WARNING 04: minimum elevation drop used for Conduit C36
  WARNING 04: minimum elevation drop used for Conduit C37
  WARNING 04: minimum elevation drop used for Conduit C38
  WARNING 04: minimum elevation drop used for Conduit C39
  WARNING 04: minimum elevation drop used for Conduit C40
  WARNING 04: minimum elevation drop used for Conduit C41
  WARNING 04: minimum elevation drop used for Conduit C43
  WARNING 04: minimum elevation drop used for Conduit C44
  WARNING 04: minimum elevation drop used for Conduit C45
  WARNING 04: minimum elevation drop used for Conduit C46
  WARNING 04: minimum elevation drop used for Conduit C48
  WARNING 04: minimum elevation drop used for Conduit C42
  WARNING 04: minimum elevation drop used for Conduit C50
  WARNING 04: minimum elevation drop used for Conduit C49
  WARNING 04: minimum elevation drop used for Conduit C01
  WARNING 04: minimum elevation drop used for Conduit C02
  WARNING 04: minimum elevation drop used for Conduit C03
  WARNING 04: minimum elevation drop used for Conduit C04
  WARNING 04: minimum elevation drop used for Conduit C05
  WARNING 04: minimum elevation drop used for Conduit C06
  WARNING 04: minimum elevation drop used for Conduit C07
  WARNING 04: minimum elevation drop used for Conduit C08
  WARNING 04: minimum elevation drop used for Conduit C09
  WARNING 04: minimum elevation drop used for Conduit C10
  WARNING 04: minimum elevation drop used for Conduit C11
  WARNING 04: minimum elevation drop used for Conduit C12
  WARNING 04: minimum elevation drop used for Conduit C13
  WARNING 04: minimum elevation drop used for Conduit C14
  WARNING 04: minimum elevation drop used for Conduit C15
  WARNING 04: minimum elevation drop used for Conduit C16
  WARNING 04: minimum elevation drop used for Conduit C17
  WARNING 04: minimum elevation drop used for Conduit C18
  WARNING 04: minimum elevation drop used for Conduit C19
  WARNING 04: minimum elevation drop used for Conduit C20
  WARNING 04: minimum elevation drop used for Conduit C21
  WARNING 04: minimum elevation drop used for Conduit C22
  WARNING 04: minimum elevation drop used for Conduit C47
  WARNING 04: minimum elevation drop used for Conduit Cout
  
  ****************
  Analysis Options
  ****************
  Flow Units ............... CMS
  Process Models:
    Rainfall/Runoff ........ YES
    RDII ................... NO
    Snowmelt ............... NO
    Groundwater ............ NO
    Flow Routing ........... YES
    Ponding Allowed ........ NO
    Water Quality .......... NO
  Infiltration Method ...... HORTON
  Flow Routing Method ...... DYNWAVE
  Surcharge Method ......... EXTRAN
  Starting Date ............ 09/27/2013 08:00:00
  Ending Date .............. 09/27/2013 09:40:00
  Antecedent Dry Days ...... 0.0
  Report Time Step ......... 00:10:00
  Wet Time Step ............ 00:05:00
  Dry Time Step ............ 01:00:00
  Routing Time Step ........ 300.00 sec
  Variable Time Step ....... YES
  Maximum Trials ........... 8
  Number of Threads ........ 1
  Head Tolerance ........... 0.001524 m
  
  
  *********************
  Rainfall File Summary
  *********************
  Station    First        Last         Recording   Periods    Periods    Periods
  ID         Date         Date         Frequency  w/Precip    Missing    Malfunc.
  -------------------------------------------------------------------------------
  112        09/27/2013   09/27/2013      10 min        11          0          0

  
  
  **************************        Volume         Depth
  Runoff Quantity Continuity     hectare-m            mm
  **************************     ---------       -------
  Total Precipitation ......       267.125      2671.352
  Evaporation Loss .........         0.000         0.000
  Infiltration Loss ........         0.000         0.000
  Surface Runoff ...........       254.341      2543.508
  Final Storage ............        15.629       156.293
  Continuity Error (%) .....        -1.065
  
  
  **************************        Volume        Volume
  Flow Routing Continuity        hectare-m      10^6 ltr
  **************************     ---------     ---------
  Dry Weather Inflow .......         0.000         0.000
  Wet Weather Inflow .......       243.782      2437.843
  Groundwater Inflow .......         0.000         0.000
  RDII Inflow ..............         0.000         0.000
  External Inflow ..........         0.000         0.000
  External Outflow .........         4.309        43.095
  Flooding Loss ............       234.434      2344.366
  Evaporation Loss .........         0.000         0.000
  Exfiltration Loss ........         0.000         0.000
  Initial Stored Volume ....         0.046         0.463
  Final Stored Volume ......         1.883        18.831
  Continuity Error (%) .....         1.313
  
  
  *************************
  Highest Continuity Errors
  *************************
  Node J30 (16.91%)
  Node J3 (14.10%)
  Node J17 (10.79%)
  Node J18 (9.51%)
  Node J24 (4.20%)
  
  
  ***************************
  Time-Step Critical Elements
  ***************************
  Link Cout (99.51%)
  
  
  ********************************
  Highest Flow Instability Indexes
  ********************************
  All links are stable.
  
  
  *********************************
  Most Frequent Nonconverging Nodes
  *********************************
  Convergence obtained at all time steps.
  
  
  *************************
  Routing Time Step Summary
  *************************
  Minimum Time Step           :     4.91 sec
  Average Time Step           :    14.60 sec
  Maximum Time Step           :   300.00 sec
  % of Time in Steady State   :     0.00
  Average Iterations per Step :     2.01
  % of Steps Not Converging   :     0.00
  Time Step Frequencies       :
     300.000 - 83.462 sec      :     0.24 %
     83.462 - 23.220 sec      :     0.00 %
     23.220 -  6.460 sec      :    99.27 %
      6.460 -  1.797 sec      :     0.49 %
      1.797 -  0.500 sec      :     0.00 %
  
  
  ***************************
  Subcatchment Runoff Summary
  ***************************
  
  ------------------------------------------------------------------------------------------------------------------------------
                            Total      Total      Total      Total     Imperv       Perv      Total       Total     Peak  Runoff
                           Precip      Runon       Evap      Infil     Runoff     Runoff     Runoff      Runoff   Runoff   Coeff
  Subcatchment                 mm         mm         mm         mm         mm         mm         mm    10^6 ltr      CMS
  ------------------------------------------------------------------------------------------------------------------------------
  S1                      2671.35       0.00       0.00       0.00      26.45    2644.91    2671.35      673.88   196.52   1.000
  S2                      2671.35       0.00       0.00       0.00      24.31    2648.89    2673.20       20.77     6.05   1.001
  S3                      2671.35       0.00       0.00       0.00      24.31    2647.04    2671.35        5.53     1.61   1.000
  S4                      2671.35       0.00       0.00       0.00      24.31    2647.04    2671.35        5.48     1.60   1.000
  S5                      2671.35       0.00       0.00       0.00      24.31    2647.04    2671.35        7.99     2.33   1.000
  S6                      2671.35       0.00       0.00       0.00      24.31    2647.04    2671.35       22.01     6.42   1.000
  S7                      2671.35       0.00       0.00       0.00      24.31    2647.04    2671.35        4.14     1.21   1.000
  S8                      2671.35       0.00       0.00       0.00      24.31    2647.04    2671.35       13.01     3.79   1.000
  S9                      2671.35       0.00       0.00       0.00      24.31    2647.04    2671.35       16.08     4.69   1.000
  S10                     2671.35       0.00       0.00       0.00       0.00    2647.04    2647.04        3.73     1.09   0.991
  S11                     2671.35       0.00       0.00       0.00      24.31    2604.33    2628.64       38.46    11.35   0.984
  S12                     2671.35       0.00       0.00       0.00      24.31    2647.04    2671.35       23.19     6.76   1.000
  S13                     2671.35       0.00       0.00       0.00       0.00    2647.04    2647.04       22.34     6.52   0.991
  S14                     2671.35       0.00       0.00       0.00      22.44    2648.91    2671.35       21.45     6.26   1.000
  S15                     2671.35       0.00       0.00       0.00      22.44    2648.91    2671.35       20.04     5.84   1.000
  S16                     2671.35       0.00       0.00       0.00      20.57    2648.67    2669.24       47.14    13.76   0.999
  S17                     2671.35       0.00       0.00       0.00      20.57    2516.76    2537.33       86.40    25.69   0.950
  S18                     2671.35       0.00       0.00       0.00      20.57    2650.81    2671.38        3.45     1.00   1.000
  S19                     2671.35       0.00       0.00       0.00      20.57       0.00      20.57        0.05     0.01   0.008
  S20                     2671.35       0.00       0.00       0.00      20.57    2650.81    2671.38        2.72     0.79   1.000
  S21                     2671.35       0.00       0.00       0.00      20.57    2633.06    2653.63       44.00    12.90   0.993
  S22                     2671.35       0.00       0.00       0.00      20.57    2650.67    2671.24        0.88     0.26   1.000
  S23                     2671.35       0.00       0.00       0.00      20.57    2650.78    2671.35        1.04     0.30   1.000
  S24                     2671.35       0.00       0.00       0.00      20.57    2650.78    2671.35        1.31     0.38   1.000
  S25                     2671.35       0.00       0.00       0.00      20.57    2650.78    2671.35        1.58     0.46   1.000
  S26                     2671.35       0.00       0.00       0.00      20.57    2650.78    2671.35        1.84     0.54   1.000
  S27                     2671.35       0.00       0.00       0.00      20.57    2651.65    2672.22       22.21     6.47   1.000
  S28                     2671.35       0.00       0.00       0.00      20.57    2636.23    2656.80       23.59     6.91   0.995
  S29                     2671.35       0.00       0.00       0.00      20.57    2650.66    2671.23        2.46     0.72   1.000
  S30                     2671.35       0.00       0.00       0.00      20.57    2473.32    2493.89      158.86    47.10   0.934
  S31                     2671.35       0.00       0.00       0.00      21.37    2649.98    2671.35       36.20    10.56   1.000
  S32                     2671.35       0.00       0.00       0.00      21.37    2649.98    2671.35       11.14     3.25   1.000
  S33                     2671.35       0.00       0.00       0.00      25.11    2646.24    2671.35        8.31     2.42   1.000
  S34                     2671.35       0.00       0.00       0.00      25.11    2646.24    2671.35        8.79     2.56   1.000
  S35                     2671.35       0.00       0.00       0.00      24.31    2647.04    2671.35       10.74     3.13   1.000
  S36                     2671.35       0.00       0.00       0.00      24.31    2647.04    2671.35        4.41     1.29   1.000
  S37                     2671.35       0.00       0.00       0.00      24.31    2647.04    2671.35        9.62     2.80   1.000
  S38                     2671.35       0.00       0.00       0.00      24.31    2647.04    2671.35        0.43     0.12   1.000
  S39                     2671.35       0.00       0.00       0.00      24.31    2647.04    2671.35       10.95     3.19   1.000
  S40                     2671.35       0.00       0.00       0.00      24.31    2647.04    2671.35        3.77     1.10   1.000
  S41                     2671.35       0.00       0.00       0.00      24.31    2647.04    2671.35        6.06     1.77   1.000
  S42                     2671.35       0.00       0.00       0.00      24.31    2647.04    2671.35        8.44     2.46   1.000
  S43                     2671.35       0.00       0.00       0.00      24.31    2647.04    2671.35       19.23     5.61   1.000
  S44                     2671.35       0.00       0.00       0.00      24.31    2647.04    2671.35       13.94     4.07   1.000
  S45                     2671.35       0.00       0.00       0.00      24.31    2647.04    2671.35        1.42     0.41   1.000
  S46                     2671.35       0.00       0.00       0.00      24.31    2647.04    2671.35       12.93     3.77   1.000
  S47                     2671.35       0.00       0.00       0.00      24.31    2647.04    2671.35       26.13     7.62   1.000
  S48                     2671.35       0.00       0.00       0.00      24.31    2647.04    2671.35       30.19     8.80   1.000
  S49                     2671.35       0.00       0.00       0.00      24.31    2647.04    2671.35       18.35     5.35   1.000
  S50                     2671.35       0.00       0.00       0.00      24.31    2647.04    2671.35       15.12     4.41   1.000
  S51                     2671.35       0.00       0.00       0.00      24.31    2647.04    2671.35        8.92     2.60   1.000
  S52                     2671.35       0.00       0.00       0.00      24.31    2647.04    2671.35       23.64     6.89   1.000
  S53                     2671.35       0.00       0.00       0.00      24.31    2633.75    2658.06       32.38     9.48   0.995
  S54                     2671.35       0.00       0.00       0.00      24.31    2648.88    2673.19       12.22     3.56   1.001
  S55                     2671.35       0.00       0.00       0.00      24.31    2647.04    2671.35        1.02     0.30   1.000
  S56                     2671.35       0.00       0.00       0.00      24.31    2647.02    2671.33        1.02     0.30   1.000
  S57                     2671.35       0.00       0.00       0.00      24.31    2647.04    2671.35       13.81     4.03   1.000
  S58                     2671.35       0.00       0.00       0.00      24.31    2647.04    2671.35       17.74     5.17   1.000
  S59                     2671.35       0.00       0.00       0.00      24.31    2647.04    2671.35       17.23     5.02   1.000
  S60                     2671.35       0.00       0.00       0.00      20.57    2652.47    2673.04       10.51     3.06   1.001
  S61                     2671.35       0.00       0.00       0.00      20.57       0.00      20.57        0.07     0.02   0.008
  S62                     2671.35       0.00       0.00       0.00      20.57    2442.59    2463.16      132.00    39.00   0.922
  S63                     2671.35       0.00       0.00       0.00      20.57    2650.78    2671.35       25.11     7.32   1.000
  S64                     2671.35       0.00       0.00       0.00      20.57    2650.78    2671.35       67.99    19.83   1.000
  S65                     2671.35       0.00       0.00       0.00      20.57    2650.78    2671.35       10.85     3.16   1.000
  S66                     2671.35       0.00       0.00       0.00      20.57    2650.78    2671.35       17.50     5.10   1.000
  S67                     2671.35       0.00       0.00       0.00      20.57    2650.78    2671.35       32.70     9.54   1.000
  S68                     2671.35       0.00       0.00       0.00      20.57    2650.78    2671.35       38.33    11.18   1.000
  S69                     2671.35       0.00       0.00       0.00      20.57       0.00      20.57        0.51     0.15   0.008
  S70                     2671.35       0.00       0.00       0.00      20.57    2631.57    2652.14       69.41    20.36   0.993
  S71                     2671.35       0.00       0.00       0.00      24.31    2647.04    2671.35       39.30    11.46   1.000
  S72                     2671.35       0.00       0.00       0.00      20.57    2650.26    2670.83       13.25     3.86   1.000
  S73                     2671.35       0.00       0.00       0.00      20.57    2650.78    2671.35       55.99    16.33   1.000
  S74                     2671.35       0.00       0.00       0.00      20.57       0.00      20.57        0.14     0.04   0.008
  S75                     2671.35       0.00       0.00       0.00      20.57    2650.78    2671.35        1.79     0.52   1.000
  S76                     2671.35       0.00       0.00       0.00      20.57    2650.78    2671.35       35.29    10.29   1.000
  S77                     2671.35       0.00       0.00       0.00      20.57    2650.78    2671.35       28.56     8.33   1.000
  S78                     2671.35       0.00       0.00       0.00      20.57    2650.78    2671.35       20.70     6.04   1.000
  S79                     2671.35       0.00       0.00       0.00      24.31    2647.04    2671.35       18.14     5.29   1.000
  S80                     2671.35       0.00       0.00       0.00      20.57    2651.58    2672.15        7.38     2.15   1.000
  S81                     2671.35       0.00       0.00       0.00      20.57    2650.78    2671.35       30.21     8.81   1.000
  S82                     2671.35       0.00       0.00       0.00      20.57    2650.78    2671.35       29.49     8.60   1.000
  S83                     2671.35       0.00       0.00       0.00      20.57    2650.78    2671.35       18.97     5.53   1.000
  S84                     2671.35       0.00       0.00       0.00      24.31    2647.04    2671.35       12.40     3.61   1.000
  S85                     2671.35       0.00       0.00       0.00      24.31    2639.82    2664.12       32.93     9.63   0.997
  S86                     2671.35       0.00       0.00       0.00       0.00    2647.04    2647.04       30.63     8.93   0.991
  S87                     2671.35       0.00       0.00       0.00      24.31    2647.04    2671.35       33.18     9.68   1.000
  S88                     2671.35       0.00       0.00       0.00      24.31    2647.04    2671.35        5.98     1.75   1.000
  S89                     2671.35       0.00       0.00       0.00      24.31    2647.04    2671.35       27.01     7.88   1.000
  S90                     2671.35       0.00       0.00       0.00       0.00    2647.04    2647.04       13.00     3.79   0.991
  S91                     2671.35       0.00       0.00       0.00      24.31    2647.04    2671.35        4.41     1.29   1.000
  
  
  ******************
  Node Depth Summary
  ******************
  
  ---------------------------------------------------------------------------------
                                 Average  Maximum  Maximum  Time of Max    Reported
                                   Depth    Depth      HGL   Occurrence   Max Depth
  Node                 Type       Meters   Meters   Meters  days hr:min      Meters
  ---------------------------------------------------------------------------------
  J7                   JUNCTION     2.49     2.50     2.50     0  00:05        2.50
  J13                  JUNCTION     2.49     2.50     2.50     0  00:05        2.50
  J19                  JUNCTION     2.49     2.50     2.50     0  00:05        2.50
  J25                  JUNCTION     2.49     2.50     2.50     0  00:05        2.50
  J1                   JUNCTION     2.49     2.50     2.50     0  00:05        2.50
  J2                   JUNCTION     2.49     2.50     2.50     0  00:05        2.50
  J3                   JUNCTION     2.49     2.50     2.50     0  00:05        2.50
  J4                   JUNCTION     2.49     2.50     2.50     0  00:05        2.50
  J5                   JUNCTION     2.49     2.50     2.50     0  00:05        2.50
  J6                   JUNCTION     2.49     2.50     2.50     0  00:05        2.50
  J8                   JUNCTION     2.49     2.50     2.50     0  00:05        2.50
  J9                   JUNCTION     2.49     2.50     2.50     0  00:05        2.50
  J10                  JUNCTION     2.49     2.50     2.50     0  00:05        2.50
  J11                  JUNCTION     2.49     2.50     2.50     0  00:05        2.50
  J12                  JUNCTION     2.49     2.50     2.50     0  00:05        2.50
  J14                  JUNCTION     2.49     2.50     2.50     0  00:05        2.50
  J15                  JUNCTION     2.49     2.50     2.50     0  00:05        2.50
  J16                  JUNCTION     2.49     2.50     2.50     0  00:05        2.50
  J17                  JUNCTION     2.49     2.50     2.50     0  00:05        2.50
  J18                  JUNCTION     2.49     2.50     2.50     0  00:05        2.50
  J20                  JUNCTION     2.49     2.50     2.50     0  00:05        2.50
  J21                  JUNCTION     2.49     2.50     2.50     0  00:05        2.50
  J22                  JUNCTION     2.49     2.50     2.50     0  00:05        2.50
  J23                  JUNCTION     2.49     2.50     2.50     0  00:05        2.50
  J24                  JUNCTION     2.49     2.50     2.50     0  00:05        2.50
  J26                  JUNCTION     2.49     2.50     2.50     0  00:05        2.50
  J27                  JUNCTION     2.49     2.50     2.50     0  00:05        2.50
  J29                  JUNCTION     2.49     2.50     2.50     0  00:05        2.50
  J30                  JUNCTION     2.49     2.50     2.50     0  00:05        2.50
  J31                  JUNCTION     2.49     2.50     2.50     0  00:05        2.50
  J33                  JUNCTION     2.49     2.50     2.50     0  00:05        2.50
  J32                  JUNCTION     2.49     2.50     2.50     0  00:05        2.50
  J28                  JUNCTION     2.49     2.50     2.50     0  00:05        2.50
  OF                   OUTFALL      1.37     1.41     1.41     0  00:05        1.37
  
  
  *******************
  Node Inflow Summary
  *******************
  
  -------------------------------------------------------------------------------------------------
                                  Maximum  Maximum                  Lateral       Total        Flow
                                  Lateral    Total  Time of Max      Inflow      Inflow     Balance
                                   Inflow   Inflow   Occurrence      Volume      Volume       Error
  Node                 Type           CMS      CMS  days hr:min    10^6 ltr    10^6 ltr     Percent
  -------------------------------------------------------------------------------------------------
  J7                   JUNCTION    51.902   51.902     0  01:20         168         168       1.248
  J13                  JUNCTION     4.444    4.444     0  01:20        14.6        14.6       2.283
  J19                  JUNCTION   210.618  210.618     0  01:20         693         693       2.227
  J25                  JUNCTION    25.689   25.770     0  01:20        82.6        83.9       1.148
  J1                   JUNCTION    17.680   17.680     0  01:15        58.1        58.1       2.327
  J2                   JUNCTION    13.282   13.282     0  01:15        43.7        43.7       1.844
  J3                   JUNCTION     0.592   19.940     0  00:05        1.95        10.1      16.420
  J4                   JUNCTION    38.460   38.625     0  01:15         126         129       1.630
  J5                   JUNCTION    31.800   31.800     0  01:15         105         105       1.450
  J6                   JUNCTION    13.913   13.913     0  01:20        45.8        45.8       2.325
  J8                   JUNCTION    21.407   21.407     0  01:20        70.4        70.4       2.327
  J9                   JUNCTION     9.626    9.626     0  01:20        31.6        31.6       1.801
  J10                  JUNCTION    14.365   14.365     0  01:20        47.2        47.2       2.035
  J11                  JUNCTION    15.433   15.640     0  00:05        50.8        52.5       1.605
  J12                  JUNCTION    16.328   16.391     0  01:15        53.7        54.2       1.595
  J14                  JUNCTION    13.835   13.835     0  01:20        45.5        45.5       2.327
  J15                  JUNCTION    19.796   19.796     0  01:20          65          65       2.144
  J16                  JUNCTION    11.459   13.306     0  00:05        37.7          41       1.990
  J17                  JUNCTION     0.149   11.552     0  00:05        0.49        7.67      12.091
  J18                  JUNCTION     0.522    8.450     0  00:05        1.72        6.13      10.504
  J20                  JUNCTION    38.659   38.659     0  01:20         127         127       2.207
  J21                  JUNCTION    12.771   12.771     0  01:20          42          42       2.327
  J22                  JUNCTION    26.206   26.206     0  01:20        85.7        85.7       2.020
  J23                  JUNCTION    13.756   13.835     0  01:20        45.2        46.3       1.726
  J24                  JUNCTION     1.814    5.098     0  00:05        5.97        8.96       4.385
  J26                  JUNCTION    11.280   11.280     0  01:20        37.1        37.1       2.327
  J27                  JUNCTION     9.894   11.138     0  00:05        32.5        34.8       2.010
  J29                  JUNCTION    16.227   16.618     0  00:05        53.4        55.3       1.892
  J30                  JUNCTION     0.000   19.844     0  00:05           0        8.39      20.351
  J31                  JUNCTION    47.105   47.174     0  01:20         152         153       0.937
  J33                  JUNCTION    15.966   15.966     0  01:20        52.5        52.5       2.324
  J32                  JUNCTION     7.284    7.284     0  01:15          24          24       2.158
  J28                  JUNCTION    11.646   14.595     0  00:05        38.3        41.4       1.911
  OF                   OUTFALL      0.000    7.968     0  00:05           0        43.1       0.000
  
  
  **********************
  Node Surcharge Summary
  **********************
  
  Surcharging occurs when water rises above the top of the highest conduit.
  ---------------------------------------------------------------------
                                               Max. Height   Min. Depth
                                   Hours       Above Crown    Below Rim
  Node                 Type      Surcharged         Meters       Meters
  ---------------------------------------------------------------------
  J7                   JUNCTION        1.67          0.850        0.000
  J13                  JUNCTION        1.67          0.850        0.000
  J19                  JUNCTION        1.67          0.850        0.000
  J25                  JUNCTION        1.67          0.850        0.000
  J1                   JUNCTION        1.67          0.850        0.000
  J2                   JUNCTION        1.67          0.850        0.000
  J3                   JUNCTION        1.67          0.850        0.000
  J4                   JUNCTION        1.67          0.850        0.000
  J5                   JUNCTION        1.67          0.850        0.000
  J6                   JUNCTION        1.67          0.850        0.000
  J8                   JUNCTION        1.67          0.850        0.000
  J9                   JUNCTION        1.67          0.850        0.000
  J10                  JUNCTION        1.67          0.850        0.000
  J11                  JUNCTION        1.67          0.850        0.000
  J12                  JUNCTION        1.67          0.850        0.000
  J14                  JUNCTION        1.67          0.850        0.000
  J15                  JUNCTION        1.67          0.850        0.000
  J16                  JUNCTION        1.67          0.850        0.000
  J17                  JUNCTION        1.67          0.850        0.000
  J18                  JUNCTION        1.67          0.850        0.000
  J20                  JUNCTION        1.67          0.850        0.000
  J21                  JUNCTION        1.67          0.850        0.000
  J22                  JUNCTION        1.67          0.850        0.000
  J23                  JUNCTION        1.67          0.850        0.000
  J24                  JUNCTION        1.67          0.850        0.000
  J26                  JUNCTION        1.67          0.850        0.000
  J27                  JUNCTION        1.67          0.850        0.000
  J29                  JUNCTION        1.67          0.850        0.000
  J30                  JUNCTION        1.67          0.850        0.000
  J31                  JUNCTION        1.67          0.850        0.000
  J33                  JUNCTION        1.67          0.850        0.000
  J32                  JUNCTION        1.67          0.850        0.000
  J28                  JUNCTION        1.67          0.850        0.000
  
  
  *********************
  Node Flooding Summary
  *********************
  
  Flooding refers to all water that overflows a node, whether it ponds or not.
  --------------------------------------------------------------------------
                                                             Total   Maximum
                                 Maximum   Time of Max       Flood    Ponded
                        Hours       Rate    Occurrence      Volume     Depth
  Node                 Flooded       CMS   days hr:min    10^6 ltr    Meters
  --------------------------------------------------------------------------
  J7                      1.67    51.746      0  01:20     166.463     0.000
  J13                     1.67     4.444      0  01:20      14.613     0.000
  J19                     1.67   203.266      0  01:20     649.467     0.000
  J25                     1.67    25.570      0  01:20      80.837     0.000
  J1                      1.67    17.680      0  01:15      58.144     0.000
  J2                      1.67    13.117      0  01:20      40.841     0.000
  J3                      1.67    17.967      0  00:05      10.132     0.000
  J4                      1.67    38.451      0  01:20     123.628     0.000
  J5                      1.67    31.492      0  01:20      98.243     0.000
  J6                      1.67    13.913      0  01:20      45.766     0.000
  J8                      1.67    21.407      0  01:20      70.404     0.000
  J9                      1.67     9.540      0  01:20      30.015     0.000
  J10                     1.67    14.135      0  01:20      44.267     0.000
  J11                     1.67    15.432      0  01:20      49.376     0.000
  J12                     1.67    16.301      0  01:20      51.683     0.000
  J14                     1.67    13.835      0  01:20      45.501     0.000
  J15                     1.67    19.714      0  01:20      63.797     0.000
  J16                     1.67    11.620      0  01:15      39.013     0.000
  J17                     1.67    10.930      0  00:05       7.671     0.000
  J18                     1.67     7.624      0  00:05       5.371     0.000
  J20                     1.67    38.652      0  01:20     126.651     0.000
  J21                     1.67    12.771      0  01:20      42.000     0.000
  J22                     1.67    26.042      0  01:20      83.543     0.000
  J23                     1.67    13.667      0  01:20      43.162     0.000
  J24                     1.67     4.994      0  00:05       8.964     0.000
  J26                     1.67    11.280      0  01:20      37.098     0.000
  J27                     1.67     9.967      0  01:20      33.025     0.000
  J29                     1.67    16.216      0  01:20      52.271     0.000
  J30                     1.67    17.943      0  00:05       8.388     0.000
  J31                     1.67    47.012      0  01:20     149.878     0.000
  J33                     1.67    15.966      0  01:20      52.523     0.000
  J32                     1.67     7.208      0  01:20      23.014     0.000
  J28                     1.67    11.733      0  01:15      38.986     0.000
  
  
  ***********************
  Outfall Loading Summary
  ***********************
  
  -----------------------------------------------------------
                         Flow       Avg       Max       Total
                         Freq      Flow      Flow      Volume
  Outfall Node           Pcnt       CMS       CMS    10^6 ltr
  -----------------------------------------------------------
  OF                   100.00     7.336     7.968      43.094
  -----------------------------------------------------------
  System               100.00     7.336     7.968      43.094
  
  
  ********************
  Link Flow Summary
  ********************
  
  -----------------------------------------------------------------------------
                                 Maximum  Time of Max   Maximum    Max/    Max/
                                  |Flow|   Occurrence   |Veloc|    Full    Full
  Link                 Type          CMS  days hr:min     m/sec    Flow   Depth
  -----------------------------------------------------------------------------
  P1                   PUMP        0.000     0  00:00                          
  C23                  CONDUIT     0.000     0  00:00      0.00    0.00    1.00
  C24                  CONDUIT     0.751     0  00:05      0.35    6.50    1.00
  C25                  CONDUIT     0.000     0  00:00      0.00    0.00    1.00
  C26                  CONDUIT     0.488     0  00:05      0.23    3.82    1.00
  C27                  CONDUIT     0.000     0  00:00      0.00    0.00    1.00
  C28                  CONDUIT     1.722     0  00:05      0.81   11.87    1.00
  C29                  CONDUIT     0.000     0  00:00      0.00    0.00    1.00
  C30                  CONDUIT     0.591     0  00:05      0.28    5.19    1.00
  C31                  CONDUIT     0.390     0  00:05      0.18    3.41    1.00
  C32                  CONDUIT     4.784     0  00:05      2.24   30.92    1.00
  C33                  CONDUIT    12.159     0  00:05      5.69   71.14    1.00
  C34                  CONDUIT     0.720     0  00:05      0.34    5.73    1.00
  C35                  CONDUIT     0.000     0  00:05      0.00    0.00    1.00
  C36                  CONDUIT     0.000     0  00:05      0.00    0.00    1.00
  C37                  CONDUIT     1.733     0  00:05      0.81   11.90    1.00
  C38                  CONDUIT     1.087     0  00:05      0.51    7.58    1.00
  C39                  CONDUIT     2.431     0  00:05      1.14   15.41    1.00
  C40                  CONDUIT     0.000     0  00:00      0.00    0.00    1.00
  C41                  CONDUIT     0.000     0  00:00      0.00    0.00    1.00
  C43                  CONDUIT     0.000     0  00:00      0.00    0.00    1.00
  C44                  CONDUIT     0.560     0  00:05      0.26    4.78    1.00
  C45                  CONDUIT    10.912     0  00:05      5.10   93.63    1.00
  C46                  CONDUIT     5.823     0  00:05      2.72   48.25    1.00
  C48                  CONDUIT     0.000     0  00:05      0.00    0.00    1.00
  C42                  CONDUIT     3.109     0  00:05      1.45   24.65    1.00
  C50                  CONDUIT     0.537     0  00:05      0.25    5.18    1.00
  C49                  CONDUIT     0.607     0  00:05      0.28    5.30    1.00
  C01                  CONDUIT     0.000     0  00:00      0.00    0.00    1.00
  C02                  CONDUIT     0.000     0  00:00      0.00    0.00    1.00
  C03                  CONDUIT     0.770     0  00:05      0.36    6.15    1.00
  C04                  CONDUIT     1.069     0  00:05      0.50    8.41    1.00
  C05                  CONDUIT     0.928     0  00:05      0.43    7.40    1.00
  C06                  CONDUIT     0.000     0  00:00      0.00    0.00    1.00
  C07                  CONDUIT     0.000     0  00:00      0.00    0.00    1.00
  C08                  CONDUIT     0.000     0  00:00      0.00    0.00    1.00
  C09                  CONDUIT     0.738     0  00:05      0.35    6.46    1.00
  C10                  CONDUIT     0.856     0  00:05      0.40    6.83    1.00
  C11                  CONDUIT     0.000     0  00:00      0.00    0.00    1.00
  C12                  CONDUIT     2.673     0  00:05      1.25   23.03    1.00
  C13                  CONDUIT     2.589     0  00:05      1.21   22.53    1.00
  C14                  CONDUIT     3.149     0  00:05      1.47   25.02    1.00
  C15                  CONDUIT     0.344     0  00:05      0.16    2.73    1.00
  C16                  CONDUIT     2.434     0  00:05      1.14   21.37    1.00
  C17                  CONDUIT     5.243     0  00:05      2.45   46.28    1.00
  C18                  CONDUIT     0.000     0  00:00      0.00    0.00    1.00
  C19                  CONDUIT     0.000     0  00:00      0.00    0.00    1.00
  C20                  CONDUIT     5.362     0  00:05      2.51   47.74    1.00
  C21                  CONDUIT     0.000     0  00:05      0.00    0.00    1.00
  C22                  CONDUIT     0.189     0  00:05      0.09    1.49    1.00
  C47                  CONDUIT     0.326     0  00:05      0.15    3.35    1.00
  Cout                 CONDUIT     7.968     0  00:05      3.85   62.92    0.93
  
  
  ***************************
  Flow Classification Summary
  ***************************
  
  -------------------------------------------------------------------------------------
                      Adjusted    ---------- Fraction of Time in Flow Class ---------- 
                       /Actual         Up    Down  Sub   Sup   Up    Down  Norm  Inlet 
  Conduit               Length    Dry  Dry   Dry   Crit  Crit  Crit  Crit  Ltd   Ctrl  
  -------------------------------------------------------------------------------------
  C23                     1.00   0.00  0.00  0.00  1.00  0.00  0.00  0.00  0.00  0.00
  C24                     1.00   0.00  0.00  0.00  1.00  0.00  0.00  0.00  0.00  0.00
  C25                     1.00   0.00  0.00  0.00  1.00  0.00  0.00  0.00  0.00  0.00
  C26                     1.00   0.00  0.00  0.00  1.00  0.00  0.00  0.00  0.00  0.00
  C27                     1.00   0.00  0.00  0.00  1.00  0.00  0.00  0.00  0.00  0.00
  C28                     1.00   0.00  0.00  0.00  1.00  0.00  0.00  0.00  0.00  0.00
  C29                     1.00   0.00  0.00  0.00  1.00  0.00  0.00  0.00  0.00  0.00
  C30                     1.00   0.00  0.00  0.00  1.00  0.00  0.00  0.00  0.00  0.00
  C31                     1.00   0.00  0.00  0.00  1.00  0.00  0.00  0.00  0.00  0.00
  C32                     1.00   0.00  0.00  0.00  1.00  0.00  0.00  0.00  0.00  0.00
  C33                     1.00   0.00  0.00  0.00  1.00  0.00  0.00  0.00  0.00  0.00
  C34                     1.00   0.00  0.00  0.00  1.00  0.00  0.00  0.00  0.00  0.00
  C35                     1.00   0.00  0.00  0.00  1.00  0.00  0.00  0.00  0.00  0.00
  C36                     1.00   0.00  0.00  0.00  1.00  0.00  0.00  0.00  0.00  0.00
  C37                     1.00   0.00  0.00  0.00  1.00  0.00  0.00  0.00  0.00  0.00
  C38                     1.00   0.00  0.00  0.00  1.00  0.00  0.00  0.00  0.00  0.00
  C39                     1.00   0.00  0.00  0.00  1.00  0.00  0.00  0.00  0.00  0.00
  C40                     1.00   0.00  0.00  0.00  1.00  0.00  0.00  0.00  0.00  0.00
  C41                     1.00   0.00  0.00  0.00  1.00  0.00  0.00  0.00  0.00  0.00
  C43                     1.00   0.00  0.00  0.00  1.00  0.00  0.00  0.00  0.00  0.00
  C44                     1.00   0.00  0.00  0.00  1.00  0.00  0.00  0.00  0.00  0.00
  C45                     1.00   0.00  0.00  0.00  1.00  0.00  0.00  0.00  0.00  0.00
  C46                     1.00   0.00  0.00  0.00  1.00  0.00  0.00  0.00  0.00  0.00
  C48                     1.00   0.00  0.00  0.00  1.00  0.00  0.00  0.00  0.00  0.00
  C42                     1.00   0.00  0.00  0.00  1.00  0.00  0.00  0.00  0.00  0.00
  C50                     1.00   0.00  0.00  0.00  1.00  0.00  0.00  0.00  0.00  0.00
  C49                     1.00   0.00  0.00  0.00  1.00  0.00  0.00  0.00  0.00  0.00
  C01                     1.00   0.00  0.00  0.00  1.00  0.00  0.00  0.00  0.00  0.00
  C02                     1.00   0.00  0.00  0.00  1.00  0.00  0.00  0.00  0.00  0.00
  C03                     1.00   0.00  0.00  0.00  1.00  0.00  0.00  0.00  0.00  0.00
  C04                     1.00   0.00  0.00  0.00  1.00  0.00  0.00  0.00  0.00  0.00
  C05                     1.00   0.00  0.00  0.00  1.00  0.00  0.00  0.00  0.00  0.00
  C06                     1.00   0.00  0.00  0.00  1.00  0.00  0.00  0.00  0.00  0.00
  C07                     1.00   0.00  0.00  0.00  1.00  0.00  0.00  0.00  0.00  0.00
  C08                     1.00   0.00  0.00  0.00  1.00  0.00  0.00  0.00  0.00  0.00
  C09                     1.00   0.00  0.00  0.00  1.00  0.00  0.00  0.00  0.00  0.00
  C10                     1.00   0.00  0.00  0.00  1.00  0.00  0.00  0.00  0.00  0.00
  C11                     1.00   0.00  0.00  0.00  1.00  0.00  0.00  0.00  0.00  0.00
  C12                     1.00   0.00  0.00  0.00  1.00  0.00  0.00  0.00  0.00  0.00
  C13                     1.00   0.00  0.00  0.00  1.00  0.00  0.00  0.00  0.00  0.00
  C14                     1.00   0.00  0.00  0.00  1.00  0.00  0.00  0.00  0.00  0.00
  C15                     1.00   0.00  0.00  0.00  1.00  0.00  0.00  0.00  0.00  0.00
  C16                     1.00   0.00  0.00  0.00  1.00  0.00  0.00  0.00  0.00  0.00
  C17                     1.00   0.00  0.00  0.00  1.00  0.00  0.00  0.00  0.00  0.00
  C18                     1.00   0.00  0.00  0.00  1.00  0.00  0.00  0.00  0.00  0.00
  C19                     1.00   0.00  0.00  0.00  1.00  0.00  0.00  0.00  0.00  0.00
  C20                     1.00   0.00  0.00  0.00  1.00  0.00  0.00  0.00  0.00  0.00
  C21                     1.00   0.00  0.00  0.00  1.00  0.00  0.00  0.00  0.00  0.00
  C22                     1.00   0.00  0.00  0.00  1.00  0.00  0.00  0.00  0.00  0.00
  C47                     1.00   0.00  0.00  0.00  1.00  0.00  0.00  0.00  0.00  0.00
  Cout                    1.00   0.00  0.00  0.00  1.00  0.00  0.00  0.00  0.00  0.00
  
  
  *************************
  Conduit Surcharge Summary
  *************************
  
  ----------------------------------------------------------------------------
                                                           Hours        Hours 
                         --------- Hours Full --------   Above Full   Capacity
  Conduit                Both Ends  Upstream  Dnstream   Normal Flow   Limited
  ----------------------------------------------------------------------------
  C23                         1.67      1.67      1.67      0.01         0.01
  C24                         1.67      1.67      1.67      0.89         0.01
  C25                         1.67      1.67      1.67      0.01         0.01
  C26                         1.67      1.67      1.67      0.72         0.01
  C27                         1.67      1.67      1.67      0.01         0.01
  C28                         1.67      1.67      1.67      0.78         0.01
  C29                         1.67      1.67      1.67      0.01         0.01
  C30                         1.67      1.67      1.67      0.86         0.01
  C31                         1.67      1.67      1.67      0.76         0.01
  C32                         1.67      1.67      1.67      0.78         0.01
  C33                         1.67      1.67      1.67      0.73         0.01
  C34                         1.67      1.67      1.67      0.81         0.01
  C35                         1.67      1.67      1.67      0.01         0.01
  C36                         1.67      1.67      1.67      0.01         0.01
  C37                         1.67      1.67      1.67      0.78         0.01
  C38                         1.67      1.67      1.67      0.75         0.01
  C39                         1.67      1.67      1.67      0.74         0.01
  C40                         1.67      1.67      1.67      0.01         0.01
  C41                         1.67      1.67      1.67      0.01         0.01
  C43                         1.67      1.67      1.67      0.01         0.01
  C44                         1.67      1.67      1.67      0.83         0.01
  C45                         1.67      1.67      1.67      1.02         0.01
  C46                         1.67      1.67      1.67      0.98         0.01
  C48                         1.67      1.67      1.67      0.01         0.01
  C42                         1.67      1.67      1.67      0.92         0.01
  C50                         1.67      1.67      1.67      0.94         0.01
  C49                         1.67      1.67      1.67      0.86         0.01
  C01                         1.67      1.67      1.67      0.01         0.01
  C02                         1.67      1.67      1.67      0.01         0.01
  C03                         1.67      1.67      1.67      0.82         0.01
  C04                         1.67      1.67      1.67      0.85         0.01
  C05                         1.67      1.67      1.67      0.84         0.01
  C06                         1.67      1.67      1.67      0.01         0.01
  C07                         1.67      1.67      1.67      0.01         0.01
  C08                         1.67      1.67      1.67      0.01         0.01
  C09                         1.67      1.67      1.67      0.90         0.01
  C10                         1.67      1.67      1.67      0.83         0.01
  C11                         1.67      1.67      1.67      0.01         0.01
  C12                         1.67      1.67      1.67      0.99         0.01
  C13                         1.67      1.67      1.67      1.00         0.01
  C14                         1.67      1.67      1.67      0.93         0.01
  C15                         1.67      1.67      1.67      0.64         0.01
  C16                         1.67      1.67      1.67      1.01         0.01
  C17                         1.67      1.67      1.67      1.04         0.01
  C18                         1.67      1.67      1.67      0.01         0.01
  C19                         1.67      1.67      1.67      0.01         0.01
  C20                         1.67      1.67      1.67      1.05         0.01
  C21                         1.67      1.67      1.67      0.01         0.01
  C22                         1.67      1.67      1.67      0.37         0.01
  C47                         1.67      1.67      1.67      0.88         0.01
  Cout                        0.01      1.67      0.01      1.67         0.01
  
  
  ***************
  Pumping Summary
  ***************
  
  ---------------------------------------------------------------------------------------------------------
                                                  Min       Avg       Max     Total     Power    % Time Off
                        Percent   Number of      Flow      Flow      Flow    Volume     Usage    Pump Curve
  Pump                 Utilized   Start-Ups       CMS       CMS       CMS  10^6 ltr     Kw-hr    Low   High
  ---------------------------------------------------------------------------------------------------------
  P1                       0.00           0      0.00      0.00      0.00     0.000      0.00    0.0    0.0
  

  Analysis begun on:  Mon Nov 18 16:46:04 2024
  Analysis ended on:  Mon Nov 18 16:46:04 2024
  Total elapsed time: < 1 sec