
  EPA STORM WATER MANAGEMENT MODEL - VERSION 5.2 (Build 5.2.4)
  PYSWMM TOOLKIT API - VERSION v1.0 (2023-11-27)
  ------------------------------------------------------------

  WARNING 04: minimum elevation drop used for Conduit C23
  WARNING 04: minimum elevation drop used for Conduit C24
  WARNING 04: minimum elevation drop used for Conduit C25
  WARNING 04: minimum elevation drop used for Conduit C26
  WARNING 04: minimum elevation drop used for Conduit C27
  WARNING 04: minimum elevation drop used for Conduit C28
  WARNING 04: minimum elevation drop used for Conduit C29
  WARNING 04: minimum elevation drop used for Conduit C30
  WARNING 04: minimum elevation drop used for Conduit C31
  WARNING 04: minimum elevation drop used for Conduit C32
  WARNING 04: minimum elevation drop used for Conduit C33
  WARNING 04: minimum elevation drop used for Conduit C34
  WARNING 04: minimum elevation drop used for Conduit C35
  WARNING 04: minimum elevation drop used for Conduit C36
  WARNING 04: minimum elevation drop used for Conduit C37
  WARNING 04: minimum elevation drop used for Conduit C38
  WARNING 04: minimum elevation drop used for Conduit C39
  WARNING 04: minimum elevation drop used for Conduit C40
  WARNING 04: minimum elevation drop used for Conduit C41
  WARNING 04: minimum elevation drop used for Conduit C43
  WARNING 04: minimum elevation drop used for Conduit C44
  WARNING 04: minimum elevation drop used for Conduit C45
  WARNING 04: minimum elevation drop used for Conduit C46
  WARNING 04: minimum elevation drop used for Conduit C48
  WARNING 04: minimum elevation drop used for Conduit C42
  WARNING 04: minimum elevation drop used for Conduit C50
  WARNING 04: minimum elevation drop used for Conduit C49
  WARNING 04: minimum elevation drop used for Conduit C01
  WARNING 04: minimum elevation drop used for Conduit C02
  WARNING 04: minimum elevation drop used for Conduit C03
  WARNING 04: minimum elevation drop used for Conduit C04
  WARNING 04: minimum elevation drop used for Conduit C05
  WARNING 04: minimum elevation drop used for Conduit C06
  WARNING 04: minimum elevation drop used for Conduit C07
  WARNING 04: minimum elevation drop used for Conduit C08
  WARNING 04: minimum elevation drop used for Conduit C09
  WARNING 04: minimum elevation drop used for Conduit C10
  WARNING 04: minimum elevation drop used for Conduit C11
  WARNING 04: minimum elevation drop used for Conduit C12
  WARNING 04: minimum elevation drop used for Conduit C13
  WARNING 04: minimum elevation drop used for Conduit C14
  WARNING 04: minimum elevation drop used for Conduit C15
  WARNING 04: minimum elevation drop used for Conduit C16
  WARNING 04: minimum elevation drop used for Conduit C17
  WARNING 04: minimum elevation drop used for Conduit C18
  WARNING 04: minimum elevation drop used for Conduit C19
  WARNING 04: minimum elevation drop used for Conduit C20
  WARNING 04: minimum elevation drop used for Conduit C21
  WARNING 04: minimum elevation drop used for Conduit C22
  WARNING 04: minimum elevation drop used for Conduit C47
  WARNING 04: minimum elevation drop used for Conduit Cout
  
  ****************
  Analysis Options
  ****************
  Flow Units ............... CMS
  Process Models:
    Rainfall/Runoff ........ YES
    RDII ................... NO
    Snowmelt ............... NO
    Groundwater ............ NO
    Flow Routing ........... YES
    Ponding Allowed ........ NO
    Water Quality .......... NO
  Infiltration Method ...... HORTON
  Flow Routing Method ...... DYNWAVE
  Surcharge Method ......... EXTRAN
  Starting Date ............ 09/23/2022 12:00:00
  Ending Date .............. 09/23/2022 12:50:00
  Antecedent Dry Days ...... 0.0
  Report Time Step ......... 00:10:00
  Wet Time Step ............ 00:05:00
  Dry Time Step ............ 01:00:00
  Routing Time Step ........ 300.00 sec
  Variable Time Step ....... YES
  Maximum Trials ........... 8
  Number of Threads ........ 1
  Head Tolerance ........... 0.001524 m
  
  
  *********************
  Rainfall File Summary
  *********************
  Station    First        Last         Recording   Periods    Periods    Periods
  ID         Date         Date         Frequency  w/Precip    Missing    Malfunc.
  -------------------------------------------------------------------------------
  146        09/23/2022   09/23/2022      10 min         6          0          0

  
  
  **************************        Volume         Depth
  Runoff Quantity Continuity     hectare-m            mm
  **************************     ---------       -------
  Total Precipitation ......       143.464      1434.698
  Evaporation Loss .........         0.000         0.000
  Infiltration Loss ........         0.000         0.000
  Surface Runoff ...........       135.862      1358.676
  Final Storage ............         9.283        92.838
  Continuity Error (%) .....        -1.172
  
  
  **************************        Volume        Volume
  Flow Routing Continuity        hectare-m      10^6 ltr
  **************************     ---------     ---------
  Dry Weather Inflow .......         0.000         0.000
  Wet Weather Inflow .......       130.056      1300.572
  Groundwater Inflow .......         0.000         0.000
  RDII Inflow ..............         0.000         0.000
  External Inflow ..........         0.000         0.000
  External Outflow .........         2.104        21.044
  Flooding Loss ............       125.200      1252.010
  Evaporation Loss .........         0.000         0.000
  Exfiltration Loss ........         0.000         0.000
  Initial Stored Volume ....         0.046         0.463
  Final Stored Volume ......         1.883        18.831
  Continuity Error (%) .....         0.703
  
  
  *************************
  Highest Continuity Errors
  *************************
  Node J3 (11.79%)
  Node J30 (10.84%)
  Node J17 (10.41%)
  Node J18 (4.83%)
  Node J24 (4.22%)
  
  
  ***************************
  Time-Step Critical Elements
  ***************************
  Link Cout (98.98%)
  
  
  ********************************
  Highest Flow Instability Indexes
  ********************************
  Link C24 (2)
  Link C25 (2)
  Link C31 (2)
  Link C33 (2)
  Link C34 (2)
  
  
  *********************************
  Most Frequent Nonconverging Nodes
  *********************************
  Convergence obtained at all time steps.
  
  
  *************************
  Routing Time Step Summary
  *************************
  Minimum Time Step           :     4.92 sec
  Average Time Step           :    15.30 sec
  Maximum Time Step           :   300.00 sec
  % of Time in Steady State   :     0.00
  Average Iterations per Step :     2.03
  % of Steps Not Converging   :     0.00
  Time Step Frequencies       :
     300.000 - 83.462 sec      :     0.51 %
     83.462 - 23.220 sec      :     0.00 %
     23.220 -  6.460 sec      :    98.46 %
      6.460 -  1.797 sec      :     1.03 %
      1.797 -  0.500 sec      :     0.00 %
  
  
  ***************************
  Subcatchment Runoff Summary
  ***************************
  
  ------------------------------------------------------------------------------------------------------------------------------
                            Total      Total      Total      Total     Imperv       Perv      Total       Total     Peak  Runoff
                           Precip      Runon       Evap      Infil     Runoff     Runoff     Runoff      Runoff   Runoff   Coeff
  Subcatchment                 mm         mm         mm         mm         mm         mm         mm    10^6 ltr      CMS
  ------------------------------------------------------------------------------------------------------------------------------
  S1                      1434.70       0.00       0.00       0.00      14.20    1420.49    1434.70      361.92   229.62   1.000
  S2                      1434.70       0.00       0.00       0.00      13.06    1421.04    1434.09       11.14     7.07   1.000
  S3                      1434.70       0.00       0.00       0.00      13.06    1421.64    1434.70        2.97     1.88   1.000
  S4                      1434.70       0.00       0.00       0.00      13.06    1421.64    1434.70        2.94     1.87   1.000
  S5                      1434.70       0.00       0.00       0.00      13.06    1421.64    1434.70        4.29     2.72   1.000
  S6                      1434.70       0.00       0.00       0.00      13.06    1421.64    1434.70       11.82     7.50   1.000
  S7                      1434.70       0.00       0.00       0.00      13.06    1421.64    1434.70        2.22     1.41   1.000
  S8                      1434.70       0.00       0.00       0.00      13.06    1421.64    1434.70        6.99     4.43   1.000
  S9                      1434.70       0.00       0.00       0.00      13.06    1421.64    1434.70        8.64     5.48   1.000
  S10                     1434.70       0.00       0.00       0.00       0.00    1421.64    1421.64        2.00     1.27   0.991
  S11                     1434.70       0.00       0.00       0.00      13.06    1380.30    1393.35       20.38    13.27   0.971
  S12                     1434.70       0.00       0.00       0.00      13.06    1421.64    1434.70       12.45     7.90   1.000
  S13                     1434.70       0.00       0.00       0.00       0.00    1421.64    1421.64       12.00     7.61   0.991
  S14                     1434.70       0.00       0.00       0.00      12.05    1422.65    1434.70       11.52     7.31   1.000
  S15                     1434.70       0.00       0.00       0.00      12.05    1422.65    1434.70       10.76     6.83   1.000
  S16                     1434.70       0.00       0.00       0.00      11.05    1416.36    1427.41       25.21    16.07   0.995
  S17                     1434.70       0.00       0.00       0.00      11.05    1318.29    1329.34       45.26    29.88   0.927
  S18                     1434.70       0.00       0.00       0.00      11.05    1423.62    1434.67        1.85     1.17   1.000
  S19                     1434.70       0.00       0.00       0.00      11.05       0.00      11.05        0.03     0.02   0.008
  S20                     1434.70       0.00       0.00       0.00      11.05    1423.55    1434.60        1.46     0.93   1.000
  S21                     1434.70       0.00       0.00       0.00      11.05    1401.82    1412.86       23.43    15.08   0.985
  S22                     1434.70       0.00       0.00       0.00      11.05    1423.62    1434.66        0.47     0.30   1.000
  S23                     1434.70       0.00       0.00       0.00      11.05    1423.65    1434.70        0.56     0.36   1.000
  S24                     1434.70       0.00       0.00       0.00      11.05    1423.65    1434.70        0.70     0.45   1.000
  S25                     1434.70       0.00       0.00       0.00      11.05    1423.65    1434.70        0.85     0.54   1.000
  S26                     1434.70       0.00       0.00       0.00      11.05    1423.65    1434.70        0.99     0.63   1.000
  S27                     1434.70       0.00       0.00       0.00      11.05    1423.63    1434.68       11.92     7.56   1.000
  S28                     1434.70       0.00       0.00       0.00      11.05    1404.50    1415.55       12.57     8.08   0.987
  S29                     1434.70       0.00       0.00       0.00      11.05    1423.63    1434.68        1.32     0.84   1.000
  S30                     1434.70       0.00       0.00       0.00      11.05    1288.60    1299.65       82.79    54.28   0.906
  S31                     1434.70       0.00       0.00       0.00      11.48    1423.22    1434.70       19.44    12.33   1.000
  S32                     1434.70       0.00       0.00       0.00      11.48    1423.22    1434.70        5.98     3.80   1.000
  S33                     1434.70       0.00       0.00       0.00      13.49    1421.21    1434.70        4.46     2.83   1.000
  S34                     1434.70       0.00       0.00       0.00      13.49    1421.21    1434.70        4.72     2.99   1.000
  S35                     1434.70       0.00       0.00       0.00      13.06    1421.64    1434.70        5.77     3.66   1.000
  S36                     1434.70       0.00       0.00       0.00      13.06    1421.64    1434.70        2.37     1.50   1.000
  S37                     1434.70       0.00       0.00       0.00      13.06    1421.64    1434.70        5.16     3.28   1.000
  S38                     1434.70       0.00       0.00       0.00      13.06    1421.64    1434.70        0.23     0.15   1.000
  S39                     1434.70       0.00       0.00       0.00      13.06    1421.64    1434.70        5.88     3.73   1.000
  S40                     1434.70       0.00       0.00       0.00      13.06    1421.64    1434.70        2.02     1.28   1.000
  S41                     1434.70       0.00       0.00       0.00      13.06    1421.64    1434.70        3.26     2.07   1.000
  S42                     1434.70       0.00       0.00       0.00      13.06    1421.64    1434.70        4.53     2.88   1.000
  S43                     1434.70       0.00       0.00       0.00      13.06    1421.64    1434.70       10.33     6.55   1.000
  S44                     1434.70       0.00       0.00       0.00      13.06    1421.64    1434.70        7.49     4.75   1.000
  S45                     1434.70       0.00       0.00       0.00      13.05    1421.64    1434.70        0.76     0.48   1.000
  S46                     1434.70       0.00       0.00       0.00      13.06    1421.64    1434.70        6.94     4.41   1.000
  S47                     1434.70       0.00       0.00       0.00      13.06    1421.64    1434.70       14.03     8.90   1.000
  S48                     1434.70       0.00       0.00       0.00      13.06    1421.64    1434.70       16.21    10.29   1.000
  S49                     1434.70       0.00       0.00       0.00      13.06    1421.64    1434.70        9.86     6.25   1.000
  S50                     1434.70       0.00       0.00       0.00      13.06    1421.64    1434.70        8.12     5.15   1.000
  S51                     1434.70       0.00       0.00       0.00      13.06    1421.64    1434.70        4.79     3.04   1.000
  S52                     1434.70       0.00       0.00       0.00      13.06    1421.64    1434.70       12.70     8.06   1.000
  S53                     1434.70       0.00       0.00       0.00      13.06    1403.60    1416.65       17.25    11.08   0.987
  S54                     1434.70       0.00       0.00       0.00      13.06    1420.20    1433.25        6.55     4.16   0.999
  S55                     1434.70       0.00       0.00       0.00      13.06    1421.64    1434.70        0.55     0.35   1.000
  S56                     1434.70       0.00       0.00       0.00      13.06    1421.62    1434.68        0.55     0.35   1.000
  S57                     1434.70       0.00       0.00       0.00      13.06    1421.64    1434.70        7.42     4.71   1.000
  S58                     1434.70       0.00       0.00       0.00      13.06    1421.64    1434.70        9.53     6.04   1.000
  S59                     1434.70       0.00       0.00       0.00      13.06    1421.64    1434.70        9.25     5.87   1.000
  S60                     1434.70       0.00       0.00       0.00      11.05    1423.32    1434.37        5.64     3.58   1.000
  S61                     1434.70       0.00       0.00       0.00      11.05       0.00      11.05        0.04     0.02   0.008
  S62                     1434.70       0.00       0.00       0.00      11.05    1267.47    1278.52       68.52    44.50   0.891
  S63                     1434.70       0.00       0.00       0.00      11.05    1423.65    1434.70       13.49     8.56   1.000
  S64                     1434.70       0.00       0.00       0.00      11.05    1423.65    1434.70       36.51    23.17   1.000
  S65                     1434.70       0.00       0.00       0.00      11.05    1423.65    1434.70        5.82     3.70   1.000
  S66                     1434.70       0.00       0.00       0.00      11.05    1423.65    1434.70        9.40     5.96   1.000
  S67                     1434.70       0.00       0.00       0.00      11.05    1423.65    1434.70       17.56    11.14   1.000
  S68                     1434.70       0.00       0.00       0.00      11.05    1423.65    1434.70       20.59    13.06   1.000
  S69                     1434.70       0.00       0.00       0.00      11.05       0.00      11.05        0.27     0.17   0.008
  S70                     1434.70       0.00       0.00       0.00      11.05    1400.57    1411.62       36.94    23.80   0.984
  S71                     1434.70       0.00       0.00       0.00      13.06    1421.64    1434.70       21.10    13.39   1.000
  S72                     1434.70       0.00       0.00       0.00      11.05    1418.24    1429.29        7.09     4.51   0.996
  S73                     1434.70       0.00       0.00       0.00      11.05    1423.65    1434.70       30.07    19.08   1.000
  S74                     1434.70       0.00       0.00       0.00      11.05       0.00      11.05        0.07     0.05   0.008
  S75                     1434.70       0.00       0.00       0.00      11.05    1423.65    1434.70        0.96     0.61   1.000
  S76                     1434.70       0.00       0.00       0.00      11.05    1423.65    1434.70       18.95    12.02   1.000
  S77                     1434.70       0.00       0.00       0.00      11.05    1423.65    1434.70       15.34     9.73   1.000
  S78                     1434.70       0.00       0.00       0.00      11.05    1423.65    1434.70       11.12     7.05   1.000
  S79                     1434.70       0.00       0.00       0.00      13.06    1421.64    1434.70        9.74     6.18   1.000
  S80                     1434.70       0.00       0.00       0.00      11.05    1423.63    1434.68        3.96     2.51   1.000
  S81                     1434.70       0.00       0.00       0.00      11.05    1423.65    1434.70       16.23    10.30   1.000
  S82                     1434.70       0.00       0.00       0.00      11.05    1423.65    1434.70       15.84    10.05   1.000
  S83                     1434.70       0.00       0.00       0.00      11.05    1423.65    1434.70       10.19     6.46   1.000
  S84                     1434.70       0.00       0.00       0.00      13.06    1421.64    1434.70        6.66     4.22   1.000
  S85                     1434.70       0.00       0.00       0.00      13.06    1409.11    1422.16       17.58    11.25   0.991
  S86                     1434.70       0.00       0.00       0.00       0.00    1421.64    1421.64       16.45    10.44   0.991
  S87                     1434.70       0.00       0.00       0.00      13.06    1421.64    1434.70       17.82    11.31   1.000
  S88                     1434.70       0.00       0.00       0.00      13.06    1421.64    1434.70        3.21     2.04   1.000
  S89                     1434.70       0.00       0.00       0.00      13.06    1421.64    1434.70       14.50     9.20   1.000
  S90                     1434.70       0.00       0.00       0.00       0.00    1421.64    1421.64        6.98     4.43   0.991
  S91                     1434.70       0.00       0.00       0.00      13.06    1421.64    1434.70        2.37     1.50   1.000
  
  
  ******************
  Node Depth Summary
  ******************
  
  ---------------------------------------------------------------------------------
                                 Average  Maximum  Maximum  Time of Max    Reported
                                   Depth    Depth      HGL   Occurrence   Max Depth
  Node                 Type       Meters   Meters   Meters  days hr:min      Meters
  ---------------------------------------------------------------------------------
  J7                   JUNCTION     2.49     2.50     2.50     0  00:05        2.50
  J13                  JUNCTION     2.49     2.50     2.50     0  00:05        2.50
  J19                  JUNCTION     2.49     2.50     2.50     0  00:05        2.50
  J25                  JUNCTION     2.49     2.50     2.50     0  00:05        2.50
  J1                   JUNCTION     2.49     2.50     2.50     0  00:05        2.50
  J2                   JUNCTION     2.49     2.50     2.50     0  00:05        2.50
  J3                   JUNCTION     2.49     2.50     2.50     0  00:05        2.50
  J4                   JUNCTION     2.49     2.50     2.50     0  00:05        2.50
  J5                   JUNCTION     2.49     2.50     2.50     0  00:05        2.50
  J6                   JUNCTION     2.49     2.50     2.50     0  00:05        2.50
  J8                   JUNCTION     2.49     2.50     2.50     0  00:05        2.50
  J9                   JUNCTION     2.49     2.50     2.50     0  00:05        2.50
  J10                  JUNCTION     2.49     2.50     2.50     0  00:05        2.50
  J11                  JUNCTION     2.49     2.50     2.50     0  00:05        2.50
  J12                  JUNCTION     2.49     2.50     2.50     0  00:05        2.50
  J14                  JUNCTION     2.49     2.50     2.50     0  00:05        2.50
  J15                  JUNCTION     2.49     2.50     2.50     0  00:05        2.50
  J16                  JUNCTION     2.49     2.50     2.50     0  00:05        2.50
  J17                  JUNCTION     2.49     2.50     2.50     0  00:05        2.50
  J18                  JUNCTION     2.49     2.50     2.50     0  00:05        2.50
  J20                  JUNCTION     2.49     2.50     2.50     0  00:05        2.50
  J21                  JUNCTION     2.49     2.50     2.50     0  00:05        2.50
  J22                  JUNCTION     2.49     2.50     2.50     0  00:05        2.50
  J23                  JUNCTION     2.49     2.50     2.50     0  00:05        2.50
  J24                  JUNCTION     2.49     2.50     2.50     0  00:05        2.50
  J26                  JUNCTION     2.49     2.50     2.50     0  00:05        2.50
  J27                  JUNCTION     2.49     2.50     2.50     0  00:05        2.50
  J29                  JUNCTION     2.49     2.50     2.50     0  00:05        2.50
  J30                  JUNCTION     2.49     2.50     2.50     0  00:05        2.50
  J31                  JUNCTION     2.49     2.50     2.50     0  00:05        2.50
  J33                  JUNCTION     2.49     2.50     2.50     0  00:05        2.50
  J32                  JUNCTION     2.49     2.50     2.50     0  00:05        2.50
  J28                  JUNCTION     2.49     2.50     2.50     0  00:05        2.50
  OF                   OUTFALL      1.36     1.41     1.41     0  00:05        1.37
  
  
  *******************
  Node Inflow Summary
  *******************
  
  -------------------------------------------------------------------------------------------------
                                  Maximum  Maximum                  Lateral       Total        Flow
                                  Lateral    Total  Time of Max      Inflow      Inflow     Balance
                                   Inflow   Inflow   Occurrence      Volume      Volume       Error
  Node                 Type           CMS      CMS  days hr:min    10^6 ltr    10^6 ltr     Percent
  -------------------------------------------------------------------------------------------------
  J7                   JUNCTION    59.577   59.577     0  00:20        87.7        87.7       1.024
  J13                  JUNCTION     5.193    5.513     0  00:15        7.81        8.62       2.597
  J19                  JUNCTION   246.104  246.104     0  00:20         371         371       2.274
  J25                  JUNCTION    29.882   30.449     0  00:20        43.2        44.9       1.385
  J1                   JUNCTION    20.658   20.658     0  00:15        31.2        31.2       2.304
  J2                   JUNCTION    15.520   15.844     0  00:15        23.4        24.2       1.986
  J3                   JUNCTION     0.692    9.633     0  00:05        1.04        5.88      13.359
  J4                   JUNCTION    44.940   45.770     0  00:15        67.9        69.9       1.917
  J5                   JUNCTION    37.157   37.331     0  00:15        56.1        56.5       1.712
  J6                   JUNCTION    16.257   16.257     0  00:20        24.5        24.5       2.063
  J8                   JUNCTION    25.014   25.014     0  00:15        37.8        37.8       2.448
  J9                   JUNCTION    11.249   11.410     0  00:20        16.8        17.3       1.740
  J10                  JUNCTION    16.785   16.785     0  00:15        25.3        25.3       1.532
  J11                  JUNCTION    18.033   18.747     0  00:15        27.2        28.9       2.078
  J12                  JUNCTION    19.079   19.388     0  00:15        28.8        29.5       2.242
  J14                  JUNCTION    16.166   16.166     0  00:20        24.4        24.4       2.461
  J15                  JUNCTION    23.134   23.134     0  00:20        34.7        34.7       2.028
  J16                  JUNCTION    13.390   14.611     0  00:15        20.2        23.2       2.196
  J17                  JUNCTION     0.174    5.958     0  00:05       0.263        4.12      11.617
  J18                  JUNCTION     0.610    1.491     0  00:05       0.921        1.99       5.077
  J20                  JUNCTION    45.181   45.181     0  00:20        67.7        67.7       2.266
  J21                  JUNCTION    14.922   14.922     0  00:20        22.5        22.5       2.461
  J22                  JUNCTION    30.628   30.628     0  00:20        45.7        45.7       1.816
  J23                  JUNCTION    16.074   16.368     0  00:20        24.1          25       2.242
  J24                  JUNCTION     2.120    3.385     0  00:05         3.2         4.7       4.402
  J26                  JUNCTION    13.181   13.181     0  00:15        19.9        19.9       2.461
  J27                  JUNCTION    11.560   12.241     0  00:15        17.4        19.1       2.478
  J29                  JUNCTION    18.961   19.544     0  00:15        28.6          30       2.331
  J30                  JUNCTION     0.000    5.861     0  00:05           0        3.88      12.160
  J31                  JUNCTION    54.281   54.606     0  00:20          79        80.1       0.910
  J33                  JUNCTION    18.656   18.656     0  00:20        28.2        28.2       2.453
  J32                  JUNCTION     8.511    8.511     0  00:15        12.9        12.9       2.193
  J28                  JUNCTION    13.609   14.408     0  00:15        20.5        22.5       2.141
  OF                   OUTFALL      0.000    7.967     0  00:05           0          21       0.000
  
  
  **********************
  Node Surcharge Summary
  **********************
  
  Surcharging occurs when water rises above the top of the highest conduit.
  ---------------------------------------------------------------------
                                               Max. Height   Min. Depth
                                   Hours       Above Crown    Below Rim
  Node                 Type      Surcharged         Meters       Meters
  ---------------------------------------------------------------------
  J7                   JUNCTION        0.83          0.850        0.000
  J13                  JUNCTION        0.83          0.850        0.000
  J19                  JUNCTION        0.83          0.850        0.000
  J25                  JUNCTION        0.83          0.850        0.000
  J1                   JUNCTION        0.83          0.850        0.000
  J2                   JUNCTION        0.83          0.850        0.000
  J3                   JUNCTION        0.83          0.850        0.000
  J4                   JUNCTION        0.83          0.850        0.000
  J5                   JUNCTION        0.83          0.850        0.000
  J6                   JUNCTION        0.83          0.850        0.000
  J8                   JUNCTION        0.83          0.850        0.000
  J9                   JUNCTION        0.83          0.850        0.000
  J10                  JUNCTION        0.83          0.850        0.000
  J11                  JUNCTION        0.83          0.850        0.000
  J12                  JUNCTION        0.83          0.850        0.000
  J14                  JUNCTION        0.83          0.850        0.000
  J15                  JUNCTION        0.83          0.850        0.000
  J16                  JUNCTION        0.83          0.850        0.000
  J17                  JUNCTION        0.83          0.850        0.000
  J18                  JUNCTION        0.83          0.850        0.000
  J20                  JUNCTION        0.83          0.850        0.000
  J21                  JUNCTION        0.83          0.850        0.000
  J22                  JUNCTION        0.83          0.850        0.000
  J23                  JUNCTION        0.83          0.850        0.000
  J24                  JUNCTION        0.83          0.850        0.000
  J26                  JUNCTION        0.83          0.850        0.000
  J27                  JUNCTION        0.83          0.850        0.000
  J29                  JUNCTION        0.83          0.850        0.000
  J30                  JUNCTION        0.83          0.850        0.000
  J31                  JUNCTION        0.83          0.850        0.000
  J33                  JUNCTION        0.83          0.850        0.000
  J32                  JUNCTION        0.83          0.850        0.000
  J28                  JUNCTION        0.83          0.850        0.000
  
  
  *********************
  Node Flooding Summary
  *********************
  
  Flooding refers to all water that overflows a node, whether it ponds or not.
  --------------------------------------------------------------------------
                                                             Total   Maximum
                                 Maximum   Time of Max       Flood    Ponded
                        Hours       Rate    Occurrence      Volume     Depth
  Node                 Flooded       CMS   days hr:min    10^6 ltr    Meters
  --------------------------------------------------------------------------
  J7                      0.83    59.017      0  00:20      86.030     0.000
  J13                     0.83     5.512      0  00:15       8.625     0.000
  J19                     0.83   238.752      0  00:20     350.393     0.000
  J25                     0.83    30.401      0  00:20      44.863     0.000
  J1                      0.83    20.397      0  00:20      30.428     0.000
  J2                      0.83    15.178      0  00:20      22.307     0.000
  J3                      0.83     9.059      0  00:05       5.878     0.000
  J4                      0.83    44.902      0  00:20      66.743     0.000
  J5                      0.83    36.018      0  00:20      52.022     0.000
  J6                      0.83    15.631      0  00:20      22.782     0.000
  J8                      0.83    24.960      0  00:20      37.621     0.000
  J9                      0.83    11.092      0  00:20      16.240     0.000
  J10                     0.83    15.806      0  00:20      22.256     0.000
  J11                     0.83    18.226      0  00:16      27.402     0.000
  J12                     0.83    19.007      0  00:20      28.469     0.000
  J14                     0.83    16.166      0  00:20      24.411     0.000
  J15                     0.83    22.761      0  00:20      33.525     0.000
  J16                     0.83    14.063      0  00:15      21.533     0.000
  J17                     0.83     5.726      0  00:05       4.120     0.000
  J18                     0.83     1.294      0  00:05       1.599     0.000
  J20                     0.83    45.173      0  00:20      67.674     0.000
  J21                     0.83    14.922      0  00:20      22.532     0.000
  J22                     0.83    30.019      0  00:20      43.764     0.000
  J23                     0.83    15.979      0  00:20      23.953     0.000
  J24                     0.83     2.606      0  00:05       3.902     0.000
  J26                     0.83    13.181      0  00:15      19.902     0.000
  J27                     0.83    11.862      0  00:15      18.180     0.000
  J29                     0.83    18.946      0  00:20      28.581     0.000
  J30                     0.83     5.649      0  00:05       3.884     0.000
  J31                     0.83    54.111      0  00:20      78.496     0.000
  J33                     0.83    18.656      0  00:20      28.165     0.000
  J32                     0.83     8.288      0  00:20      12.226     0.000
  J28                     0.83    13.890      0  00:15      21.016     0.000
  
  
  ***********************
  Outfall Loading Summary
  ***********************
  
  -----------------------------------------------------------
                         Flow       Avg       Max       Total
                         Freq      Flow      Flow      Volume
  Outfall Node           Pcnt       CMS       CMS    10^6 ltr
  -----------------------------------------------------------
  OF                   100.00     7.321     7.967      21.044
  -----------------------------------------------------------
  System               100.00     7.321     7.967      21.044
  
  
  ********************
  Link Flow Summary
  ********************
  
  -----------------------------------------------------------------------------
                                 Maximum  Time of Max   Maximum    Max/    Max/
                                  |Flow|   Occurrence   |Veloc|    Full    Full
  Link                 Type          CMS  days hr:min     m/sec    Flow   Depth
  -----------------------------------------------------------------------------
  P1                   PUMP        0.000     0  00:00                          
  C23                  CONDUIT     0.056     0  00:05      0.03    0.49    1.00
  C24                  CONDUIT     1.033     0  00:05      0.48    8.95    1.00
  C25                  CONDUIT     0.066     0  00:05      0.03    0.53    1.00
  C26                  CONDUIT     0.884     0  00:05      0.41    6.91    1.00
  C27                  CONDUIT     0.062     0  00:05      0.03    0.51    1.00
  C28                  CONDUIT     1.127     0  00:05      0.53    7.77    1.00
  C29                  CONDUIT     0.643     0  00:05      0.30    4.53    1.00
  C30                  CONDUIT     1.148     0  00:05      0.54   10.09    1.00
  C31                  CONDUIT     0.697     0  00:05      0.33    6.10    1.00
  C32                  CONDUIT     2.372     0  00:05      1.11   15.33    1.00
  C33                  CONDUIT     6.051     0  00:05      2.83   35.40    1.00
  C34                  CONDUIT     1.106     0  00:05      0.52    8.80    1.00
  C35                  CONDUIT     0.237     0  00:05      0.11    2.52    1.00
  C36                  CONDUIT     0.586     0  00:05      0.27    5.53    1.00
  C37                  CONDUIT     0.930     0  00:05      0.43    6.38    1.00
  C38                  CONDUIT     0.985     0  00:05      0.46    6.87    1.00
  C39                  CONDUIT     0.889     0  00:05      0.42    5.64    1.00
  C40                  CONDUIT     0.000     0  00:00      0.00    0.00    1.00
  C41                  CONDUIT     0.000     0  00:00      0.00    0.00    1.00
  C43                  CONDUIT     0.000     0  00:00      0.00    0.00    1.00
  C44                  CONDUIT     0.614     0  00:05      0.29    5.24    1.00
  C45                  CONDUIT     2.681     0  00:05      1.25   23.00    1.00
  C46                  CONDUIT     2.578     0  00:05      1.21   21.36    1.00
  C48                  CONDUIT     0.000     0  00:05      0.00    0.00    1.00
  C42                  CONDUIT     0.603     0  00:05      0.28    4.78    1.00
  C50                  CONDUIT     0.451     0  00:05      0.21    4.36    1.00
  C49                  CONDUIT     0.524     0  00:05      0.24    4.57    1.00
  C01                  CONDUIT     0.000     0  00:00      0.00    0.00    1.00
  C02                  CONDUIT     0.000     0  00:00      0.00    0.00    1.00
  C03                  CONDUIT     0.891     0  00:05      0.42    7.12    1.00
  C04                  CONDUIT     0.580     0  00:05      0.27    4.56    1.00
  C05                  CONDUIT     0.700     0  00:05      0.33    5.58    1.00
  C06                  CONDUIT     0.000     0  00:00      0.00    0.00    1.00
  C07                  CONDUIT     0.000     0  00:00      0.00    0.00    1.00
  C08                  CONDUIT     0.000     0  00:00      0.00    0.00    1.00
  C09                  CONDUIT     1.017     0  00:05      0.48    8.90    1.00
  C10                  CONDUIT     1.170     0  00:05      0.55    9.33    1.00
  C11                  CONDUIT     0.000     0  00:00      0.00    0.00    1.00
  C12                  CONDUIT     0.203     0  00:05      0.09    1.75    1.00
  C13                  CONDUIT     0.056     0  00:05      0.03    0.48    1.00
  C14                  CONDUIT     3.055     0  00:05      1.43   24.27    1.00
  C15                  CONDUIT     0.118     0  00:05      0.06    0.94    1.00
  C16                  CONDUIT     2.399     0  00:05      1.12   21.06    1.00
  C17                  CONDUIT     2.500     0  00:05      1.17   22.07    1.00
  C18                  CONDUIT     0.000     0  00:00      0.00    0.00    1.00
  C19                  CONDUIT     0.083     0  00:05      0.04    0.66    1.00
  C20                  CONDUIT     1.207     0  00:05      0.56   10.75    1.00
  C21                  CONDUIT     0.446     0  00:05      0.21    4.22    1.00
  C22                  CONDUIT     0.000     0  00:05      0.00    0.00    1.00
  C47                  CONDUIT     1.265     0  00:05      0.59   13.00    1.00
  Cout                 CONDUIT     7.967     0  00:05      3.85   62.91    0.93
  
  
  ***************************
  Flow Classification Summary
  ***************************
  
  -------------------------------------------------------------------------------------
                      Adjusted    ---------- Fraction of Time in Flow Class ---------- 
                       /Actual         Up    Down  Sub   Sup   Up    Down  Norm  Inlet 
  Conduit               Length    Dry  Dry   Dry   Crit  Crit  Crit  Crit  Ltd   Ctrl  
  -------------------------------------------------------------------------------------
  C23                     1.00   0.00  0.00  0.00  1.00  0.00  0.00  0.00  0.00  0.00
  C24                     1.00   0.00  0.00  0.00  1.00  0.00  0.00  0.00  0.00  0.00
  C25                     1.00   0.00  0.00  0.00  1.00  0.00  0.00  0.00  0.00  0.00
  C26                     1.00   0.00  0.00  0.00  1.00  0.00  0.00  0.00  0.00  0.00
  C27                     1.00   0.00  0.00  0.00  1.00  0.00  0.00  0.00  0.00  0.00
  C28                     1.00   0.00  0.00  0.00  1.00  0.00  0.00  0.00  0.00  0.00
  C29                     1.00   0.00  0.00  0.00  1.00  0.00  0.00  0.00  0.00  0.00
  C30                     1.00   0.00  0.00  0.00  1.00  0.00  0.00  0.00  0.00  0.00
  C31                     1.00   0.00  0.00  0.00  1.00  0.00  0.00  0.00  0.00  0.00
  C32                     1.00   0.00  0.00  0.00  1.00  0.00  0.00  0.00  0.00  0.00
  C33                     1.00   0.00  0.00  0.00  1.00  0.00  0.00  0.00  0.00  0.00
  C34                     1.00   0.00  0.00  0.00  1.00  0.00  0.00  0.00  0.00  0.00
  C35                     1.00   0.00  0.00  0.00  1.00  0.00  0.00  0.00  0.00  0.00
  C36                     1.00   0.00  0.00  0.00  1.00  0.00  0.00  0.00  0.00  0.00
  C37                     1.00   0.00  0.00  0.00  1.00  0.00  0.00  0.00  0.00  0.00
  C38                     1.00   0.00  0.00  0.00  1.00  0.00  0.00  0.00  0.00  0.00
  C39                     1.00   0.00  0.00  0.00  1.00  0.00  0.00  0.00  0.00  0.00
  C40                     1.00   0.00  0.00  0.00  1.00  0.00  0.00  0.00  0.00  0.00
  C41                     1.00   0.00  0.00  0.00  1.00  0.00  0.00  0.00  0.00  0.00
  C43                     1.00   0.00  0.00  0.00  1.00  0.00  0.00  0.00  0.00  0.00
  C44                     1.00   0.00  0.00  0.00  1.00  0.00  0.00  0.00  0.00  0.00
  C45                     1.00   0.00  0.00  0.00  1.00  0.00  0.00  0.00  0.00  0.00
  C46                     1.00   0.00  0.00  0.00  1.00  0.00  0.00  0.00  0.00  0.00
  C48                     1.00   0.00  0.00  0.00  1.00  0.00  0.00  0.00  0.00  0.00
  C42                     1.00   0.00  0.00  0.00  1.00  0.00  0.00  0.00  0.00  0.00
  C50                     1.00   0.00  0.00  0.00  1.00  0.00  0.00  0.00  0.00  0.00
  C49                     1.00   0.00  0.00  0.00  1.00  0.00  0.00  0.00  0.00  0.00
  C01                     1.00   0.00  0.00  0.00  1.00  0.00  0.00  0.00  0.00  0.00
  C02                     1.00   0.00  0.00  0.00  1.00  0.00  0.00  0.00  0.00  0.00
  C03                     1.00   0.00  0.00  0.00  1.00  0.00  0.00  0.00  0.00  0.00
  C04                     1.00   0.00  0.00  0.00  1.00  0.00  0.00  0.00  0.00  0.00
  C05                     1.00   0.00  0.00  0.00  1.00  0.00  0.00  0.00  0.00  0.00
  C06                     1.00   0.00  0.00  0.00  1.00  0.00  0.00  0.00  0.00  0.00
  C07                     1.00   0.00  0.00  0.00  1.00  0.00  0.00  0.00  0.00  0.00
  C08                     1.00   0.00  0.00  0.00  1.00  0.00  0.00  0.00  0.00  0.00
  C09                     1.00   0.00  0.00  0.00  1.00  0.00  0.00  0.00  0.00  0.00
  C10                     1.00   0.00  0.00  0.00  1.00  0.00  0.00  0.00  0.00  0.00
  C11                     1.00   0.00  0.00  0.00  1.00  0.00  0.00  0.00  0.00  0.00
  C12                     1.00   0.00  0.00  0.00  1.00  0.00  0.00  0.00  0.00  0.00
  C13                     1.00   0.00  0.00  0.00  1.00  0.00  0.00  0.00  0.00  0.00
  C14                     1.00   0.00  0.00  0.00  1.00  0.00  0.00  0.00  0.00  0.00
  C15                     1.00   0.00  0.00  0.00  1.00  0.00  0.00  0.00  0.00  0.00
  C16                     1.00   0.00  0.00  0.00  1.00  0.00  0.00  0.00  0.00  0.00
  C17                     1.00   0.00  0.00  0.00  1.00  0.00  0.00  0.00  0.00  0.00
  C18                     1.00   0.00  0.00  0.00  1.00  0.00  0.00  0.00  0.00  0.00
  C19                     1.00   0.00  0.00  0.00  1.00  0.00  0.00  0.00  0.00  0.00
  C20                     1.00   0.00  0.00  0.00  1.00  0.00  0.00  0.00  0.00  0.00
  C21                     1.00   0.00  0.00  0.00  1.00  0.00  0.00  0.00  0.00  0.00
  C22                     1.00   0.00  0.00  0.00  1.00  0.00  0.00  0.00  0.00  0.00
  C47                     1.00   0.00  0.00  0.00  1.00  0.00  0.00  0.00  0.00  0.00
  Cout                    1.00   0.00  0.00  0.00  1.00  0.00  0.00  0.00  0.00  0.00
  
  
  *************************
  Conduit Surcharge Summary
  *************************
  
  ----------------------------------------------------------------------------
                                                           Hours        Hours 
                         --------- Hours Full --------   Above Full   Capacity
  Conduit                Both Ends  Upstream  Dnstream   Normal Flow   Limited
  ----------------------------------------------------------------------------
  C23                         0.83      0.83      0.83      0.01         0.01
  C24                         0.83      0.83      0.83      0.83         0.01
  C25                         0.83      0.83      0.83      0.01         0.01
  C26                         0.83      0.83      0.83      0.82         0.01
  C27                         0.83      0.83      0.83      0.01         0.01
  C28                         0.83      0.83      0.83      0.74         0.01
  C29                         0.83      0.83      0.83      0.69         0.01
  C30                         0.83      0.83      0.83      0.83         0.01
  C31                         0.83      0.83      0.83      0.83         0.01
  C32                         0.83      0.83      0.83      0.75         0.01
  C33                         0.83      0.83      0.83      0.71         0.01
  C34                         0.83      0.83      0.83      0.83         0.01
  C35                         0.83      0.83      0.83      0.79         0.01
  C36                         0.83      0.83      0.83      0.83         0.01
  C37                         0.83      0.83      0.83      0.72         0.01
  C38                         0.83      0.83      0.83      0.74         0.01
  C39                         0.83      0.83      0.83      0.66         0.01
  C40                         0.83      0.83      0.83      0.01         0.01
  C41                         0.83      0.83      0.83      0.01         0.01
  C43                         0.83      0.83      0.83      0.01         0.01
  C44                         0.83      0.83      0.83      0.83         0.01
  C45                         0.83      0.83      0.83      0.83         0.01
  C46                         0.83      0.83      0.83      0.83         0.01
  C48                         0.83      0.83      0.83      0.01         0.01
  C42                         0.83      0.83      0.83      0.77         0.01
  C50                         0.83      0.83      0.83      0.83         0.01
  C49                         0.83      0.83      0.83      0.83         0.01
  C01                         0.83      0.83      0.83      0.01         0.01
  C02                         0.83      0.83      0.83      0.01         0.01
  C03                         0.83      0.83      0.83      0.83         0.01
  C04                         0.83      0.83      0.83      0.76         0.01
  C05                         0.83      0.83      0.83      0.80         0.01
  C06                         0.83      0.83      0.83      0.01         0.01
  C07                         0.83      0.83      0.83      0.01         0.01
  C08                         0.83      0.83      0.83      0.01         0.01
  C09                         0.83      0.83      0.83      0.83         0.01
  C10                         0.83      0.83      0.83      0.83         0.01
  C11                         0.83      0.83      0.83      0.01         0.01
  C12                         0.83      0.83      0.83      0.49         0.01
  C13                         0.83      0.83      0.83      0.01         0.01
  C14                         0.83      0.83      0.83      0.83         0.01
  C15                         0.83      0.83      0.83      0.01         0.01
  C16                         0.83      0.83      0.83      0.83         0.01
  C17                         0.83      0.83      0.83      0.83         0.01
  C18                         0.83      0.83      0.83      0.01         0.01
  C19                         0.83      0.83      0.83      0.01         0.01
  C20                         0.83      0.83      0.83      0.83         0.01
  C21                         0.83      0.83      0.83      0.83         0.01
  C22                         0.83      0.83      0.83      0.01         0.01
  C47                         0.83      0.83      0.83      0.83         0.01
  Cout                        0.01      0.83      0.01      0.83         0.01
  
  
  ***************
  Pumping Summary
  ***************
  
  ---------------------------------------------------------------------------------------------------------
                                                  Min       Avg       Max     Total     Power    % Time Off
                        Percent   Number of      Flow      Flow      Flow    Volume     Usage    Pump Curve
  Pump                 Utilized   Start-Ups       CMS       CMS       CMS  10^6 ltr     Kw-hr    Low   High
  ---------------------------------------------------------------------------------------------------------
  P1                       0.00           0      0.00      0.00      0.00     0.000      0.00    0.0    0.0
  

  Analysis begun on:  Mon Nov 18 19:49:46 2024
  Analysis ended on:  Mon Nov 18 19:49:46 2024
  Total elapsed time: < 1 sec